# CIF file generated by openbabel 2.3.2, see http://openbabel.sf.net
data_IFU_nozeolite_relaxed
_symmetry_cell_setting           triclinic
_symmetry_space_group_name_H-M   'P 1'
_symmetry_Int_Tables_number      1
loop_
_symmetry_equiv_pos_site_id
_symmetry_equiv_pos_as_xyz
1 x,y,z
_cell_length_a                   26.3419785418
_cell_length_b                   26.0680201622
_cell_length_c                   16.9702875384
_cell_angle_alpha                88.7863812257
_cell_angle_beta                 90.6537250925
_cell_angle_gamma                90.1104108025
loop_
    _atom_site_label
    _atom_site_type_symbol
    _atom_site_fract_x
    _atom_site_fract_y
    _atom_site_fract_z
C    C    0.60703   0.57074   0.65874
C    C    0.40902   0.42373   0.64321
C    C    0.37647   0.46220   0.37755
C    C    0.42603   0.27741   0.54398
C    C    0.33610   0.38614   0.54043
C    C    0.63164   0.47350   0.62112
C    C    0.31931   0.52996   0.59340
C    C    0.60065   0.51614   0.64816
C    C    0.55026   0.49690   0.65658
C    C    0.62833   0.37720   0.42771
C    C    0.56566   0.13745   0.39198
C    C    0.72347   0.51025   0.64264
C    C    0.36715   0.60177   0.54972
C    C    0.32283   0.42747   0.59003
C    C    0.45643   0.50458   0.65474
C    C    0.45566   0.09151   0.04778
C    C    0.47397   0.32442   0.32489
C    C    0.32823   0.54576   0.38303
C    C    0.60965   0.53771   0.35744
C    C    0.39999   0.08395   0.19426
C    C    0.54886   0.44379   0.64060
C    C    0.40772   0.37032   0.62813
C    C    0.45013   0.34024   0.64231
C    C    0.49858   0.36402   0.64733
C    C    0.53143   0.23152   0.61038
C    C    0.67834   0.58376   0.56591
C    C    0.54161   0.40514   0.34545
C    C    0.40559   0.58802   0.60949
C    C    0.36453   0.45188   0.62698
C    C    0.44136   0.11599   0.65320
C    C    0.53505   0.32543   0.62378
C    C    0.44914   0.80231   0.37772
C    C    0.52682   0.31378   0.32591
C    C    0.32773   0.39925   0.45869
C    C    0.37553   0.35488   0.56524
C    C    0.45357   0.37238   0.34650
C    C    0.45450   0.28909   0.61294
C    C    0.67608   0.59906   0.48712
C    C    0.55877   0.35250   0.34850
C    C    0.47844   0.18056   0.33320
C    C    0.56487   0.59722   0.68897
C    C    0.48828   0.23497   0.32709
C    C    0.48899   0.13948   0.93036
C    C    0.36468   0.50617   0.62306
C    C    0.57292   0.24075   0.39990
C    C    0.39683   0.32083   0.43023
C    C    0.45289   0.11270   0.43996
C    C    0.50745   0.27706   0.62374
C    C    0.59762   0.42745   0.61152
C    C    0.45592   0.44928   0.65485
C    C    0.72889   0.40818   0.45417
C    C    0.62744   0.42761   0.38614
C    C    0.42274   0.48883   0.35382
C    C    0.51397   0.57806   0.68749
C    C    0.64605   0.38234   0.50881
C    C    0.45714   0.16444   0.40383
C    C    0.31949   0.03890   0.17931
C    C    0.59480   0.69184   0.36503
C    C    0.40551   0.36999   0.39071
C    C    0.37226   0.41005   0.40754
C    C    0.28327   0.46260   0.38375
C    C    0.16860   0.60379   0.62934
C    C    0.39188   0.68990   0.55441
C    C    0.52351   0.65050   0.30356
C    C    0.43769   0.08429   0.31697
C    C    0.42017   0.27523   0.40572
C    C    0.50562   0.52701   0.66790
C    C    0.57962   0.44412   0.35763
C    C    0.63969   0.60394   0.61428
C    C    0.48846   0.41648   0.34381
C    C    0.28108   0.41953   0.43565
C    C    0.47508   0.47048   0.34552
C    C    0.46445   0.12031   0.52053
C    C    0.48132   0.09417   0.26341
C    C    0.41889   0.68121   0.62634
C    C    0.41053   0.53403   0.63323
C    C    0.35875   0.07907   0.06099
C    C    0.30925   0.07762   0.93837
C    C    0.50214   0.41816   0.64990
C    C    0.56273   0.65174   0.69139
C    C    0.45422   0.57581   0.32052
C    C    0.41570   0.54212   0.34456
C    C    0.47983   0.62157   0.68812
C    C    0.56069   0.84081   0.66907
C    C    0.33046   0.49122   0.37913
C    C    0.23485   0.56549   0.36469
C    C    0.10774   0.63291   0.35707
C    C    0.27203   0.50320   0.60494
C    C    0.61553   0.64084   0.38442
C    C    0.23974   0.47437   0.34019
C    C    0.40165   0.71947   0.42534
C    C    0.55930   0.99306   0.38052
C    C    0.55069   0.08499   0.41276
C    C    0.39596   0.11226   0.77349
C    C    0.35241   0.09783   0.89798
C    C    0.43397   0.62887   0.64501
C    C    0.59378   0.68423   0.64427
C    C    0.32167   0.57327   0.54457
C    C    0.56934   0.85523   0.58305
C    C    0.45351   0.08687   0.18420
C    C    0.38225   0.04547   0.67654
C    C    0.38241   0.66487   0.42568
C    C    0.41440   0.01483   0.63217
C    C    0.47546   0.17069   0.53687
C    C    0.23157   0.41603   0.59707
C    C    0.22780   0.59417   0.52039
C    C    0.59340   0.59308   0.35001
C    C    0.45792   0.85542   0.57301
C    C    0.57735   0.85872   0.74118
C    C    0.57278   0.95823   0.32278
C    C    0.39880   0.73527   0.50612
C    C    0.64275   0.63885   0.45814
C    C    0.37421   0.64998   0.50749
C    C    0.42990   0.82817   0.51518
C    C    0.51536   0.00628   0.49926
C    C    0.55240   0.97231   0.45709
C    C    0.43615   0.24668   0.47548
C    C    0.41594   0.94530   0.30917
C    C    0.43740   0.77312   0.62088
C    C    0.46813   0.71983   0.32061
C    C    0.54299   0.60059   0.31862
C    C    0.47347   0.94746   0.62191
C    C    0.55243   0.69524   0.31453
C    C    0.60024   0.73767   0.41332
C    C    0.53437   0.78821   0.33305
C    C    0.39482   0.07241   0.27777
C    C    0.26744   0.04797   0.05958
C    C    0.43671   0.01343   0.40750
C    C    0.53963   0.87534   0.95676
C    C    0.51904   0.73863   0.31270
C    C    0.14595   0.52961   0.81459
C    C    0.07789   0.63915   0.68549
C    C    0.23021   0.53305   0.63610
C    C    0.31330   0.94366   0.79072
C    C    0.17444   0.02185   0.05563
C    C    0.49405   0.86445   0.81063
C    C    0.33766   0.00662   0.24533
C    C    0.59810   0.33727   0.40309
C    C    0.48990   0.82319   0.32844
C    C    0.41996   0.96213   0.64408
C    C    0.45488   0.03626   0.59315
C    C    0.32443   0.05071   0.78272
C    C    0.08650   0.60209   0.80975
C    C    0.34592   0.96564   0.73096
C    C    0.45511   0.08869   0.58490
C    C    0.51605   0.50856   0.33712
C    C    0.78332   0.43927   0.66978
C    C    0.47542   0.87296   0.29085
C    C    0.53415   0.75314   0.66784
C    C    0.40273   0.09401   0.69759
C    C    0.27255   0.97550   0.81934
C    C    0.59657   0.76299   0.55417
C    C    0.51893   0.80460   0.66430
C    C    0.46196   0.92941   0.47739
C    C    0.15666   0.59336   0.71036
C    C    0.57714   0.78741   0.38976
C    C    0.90236   0.62590   0.59409
C    C    0.27685   0.58279   0.49029
C    C    0.54280   0.89746   0.54742
C    C    0.56893   0.92910   0.19419
C    C    0.27471   0.45110   0.59229
C    C    0.19222   0.59488   0.38748
C    C    0.58691   0.81634   0.52797
C    C    0.33491   0.90040   0.83292
C    C    0.46320   0.86066   0.87979
C    C    0.13836   0.01032   0.88381
C    C    0.23023   0.95804   0.86627
C    C    0.03994   0.64824   0.55201
C    C    0.13250   0.62839   0.57600
C    C    0.90286   0.62796   0.67976
C    C    0.89530   0.58408   0.34168
C    C    0.56163   0.91933   0.47449
C    C    0.43906   0.13658   0.80893
C    C    0.39331   0.31716   0.51470
C    C    0.47621   0.15419   0.67803
C    C    0.38946   0.93784   0.69968
C    C    0.39873   0.11149   0.93707
C    C    0.34627   0.02051   0.72276
C    C    0.57970   0.73689   0.62784
C    C    0.38665   0.89702   0.10089
C    C    0.46138   0.89279   0.01489
C    C    0.48688   0.86988   0.95055
C    C    0.41290   0.89714   0.74574
C    C    0.50497   0.56082   0.31988
C    C    0.99478   0.65218   0.33312
C    C    0.08663   0.46543   0.83862
C    C    0.54894   0.85859   0.81698
C    C    0.31395   0.93768   0.16167
C    C    0.38420   0.88163   0.81134
C    C    0.28406   0.02931   0.82367
C    C    0.99124   0.65138   0.58879
C    C    0.63164   0.67670   0.51583
C    C    0.49602   0.71544   0.68558
C    C    0.03024   0.63902   0.71856
C    C    0.21268   0.57952   0.59939
C    C    0.39176   0.93167   0.23587
C    C    0.38940   0.62661   0.36806
C    C    0.24922   0.93524   0.07551
C    C    0.13887   0.62716   0.49313
C    C    0.19795   0.39401   0.39467
C    C    0.35890   0.07068   0.14411
C    C    0.49287   0.12533   0.01228
C    C    0.58952   0.28515   0.52759
C    C    0.33255   0.90633   0.10102
C    C    0.22539   0.03530   0.93315
C    C    0.45832   0.19973   0.47184
C    C    0.20346   0.45909   0.72432
C    C    0.95093   0.65009   0.80553
C    C    0.40375   0.99114   0.34675
C    C    0.19071   0.91376   0.96996
C    C    0.47388   0.06096   0.11961
C    C    0.51949   0.05020   0.27799
C    C    0.57936   0.33198   0.57719
C    C    0.08401   0.64309   0.60314
C    C    0.87125   0.59301   0.72382
C    C    0.33026   0.89151   0.91709
C    C    0.57984   0.14477   0.75575
C    C    0.94791   0.62793   0.46031
C    C    0.90157   0.60643   0.42237
C    C    0.20009   0.93409   0.04400
C    C    0.23641   0.91773   0.92242
C    C    0.22291   0.52397   0.31166
C    C    0.59165   0.91279   0.74545
C    C    0.41027   0.86691   0.88115
C    C    0.37033   0.02544   0.30153
C    C    0.37313   0.57236   0.36907
C    C    0.09657   0.63821   0.43938
C    C    0.26962   0.96575   0.13652
C    C    0.53282   0.15693   0.79990
C    C    0.93057   0.56835   0.12397
C    C    0.44946   0.90635   0.33836
C    C    0.57810   0.88363   0.41507
C    C    0.46847   0.89078   0.74460
C    C    0.90262   0.42990   0.78330
C    C    0.82844   0.57065   0.68549
C    C    0.86158   0.50449   0.28254
C    C    0.76876   0.57919   0.56705
C    C    0.85822   0.60614   0.55654
C    C    0.44152   0.13074   0.89252
C    C    0.49800   0.92400   0.69534
C    C    0.45119   0.27415   0.33858
C    C    0.05126   0.63390   0.08348
C    C    0.99609   0.64045   0.41830
C    C    0.09979   0.55396   0.83877
C    C    0.13905   0.47548   0.82413
C    C    0.94616   0.63794   0.54504
C    C    0.57985   0.90581   0.33605
C    C    0.27860   0.02051   0.13340
C    C    0.43621   0.62727   0.32496
C    C    0.98855   0.65439   0.67394
C    C    0.98048   0.47468   0.81735
C    C    0.59281   0.28595   0.44400
C    C    0.76490   0.58531   0.48328
C    C    0.04403   0.64496   0.46705
C    C    0.57406   0.98003   0.23997
C    C    0.41550   0.77866   0.54492
C    C    0.80971   0.58340   0.43929
C    C    0.90572   0.38280   0.36838
C    C    0.20674   0.51294   0.70663
C    C    0.21336   0.38504   0.53437
C    C    0.11347   0.61759   0.74020
C    C    0.06108   0.33174   0.56022
C    C    0.53384   0.15231   0.88497
C    C    0.57420   0.18559   0.43757
C    C    0.28587   0.90146   0.95996
C    C    0.97253   0.33290   0.50536
C    C    0.68524   0.04987   0.83240
C    C    0.31069   0.07140   0.02160
C    C    0.03204   0.68804   0.29771
C    C    0.96892   0.62534   0.26564
C    C    0.85189   0.45441   0.31472
C    C    0.01001   0.51966   0.83488
C    C    0.85233   0.44185   0.75972
C    C    0.85751   0.60024   0.47186
C    C    0.48282   0.15405   0.76194
C    C    0.94380   0.65129   0.72179
C    C    0.99213   0.57314   0.84308
C    C    0.60688   0.38012   0.57093
C    C    0.57444   0.86972   0.89465
C    C    0.55934   0.14742   0.58487
C    C    0.57402   0.23577   0.55995
C    C    0.47114   0.66550   0.30993
C    C    0.82747   0.41578   0.70033
C    C    0.53803   0.06573   0.48826
C    C    0.54406   0.04461   0.35473
C    C    0.58603   0.13442   0.67216
C    C    0.80686   0.55307   0.37117
C    C    0.77017   0.49134   0.67984
C    C    0.53680   0.25857   0.33959
C    C    0.92048   0.04785   0.85009
C    C    0.08204   0.62865   0.22106
C    C    0.16633   0.38231   0.68180
C    C    0.89294   0.51012   0.21822
C    C    0.06188   0.51336   0.84856
C    C    0.88932   0.51695   0.80097
C    C    0.66823   0.46380   0.38189
C    C    0.23252   0.39609   0.45765
C    C    0.52743   0.01472   0.22077
C    C    0.43662   0.84064   0.43524
C    C    0.13301   0.35055   0.47421
C    C    0.99106   0.62790   0.19058
C    C    0.80932   0.52234   0.71678
C    C    0.92325   0.47538   0.09442
C    C    0.85278   0.54792   0.33131
C    C    0.94854   0.53689   0.98123
C    C    0.94648   0.30242   0.13989
C    C    0.54229   0.01538   0.63169
C    C    0.89674   0.56973   0.79309
C    C    0.16419   0.36023   0.54237
C    C    0.55969   0.13795   0.30411
C    C    0.15017   0.36705   0.39896
C    C    0.75952   0.41372   0.60701
C    C    0.71717   0.57911   0.44168
C    C    0.14162   0.39642   0.75141
C    C    0.03177   0.61923   0.80521
C    C    0.81696   0.58628   0.60422
C    C    0.50697   0.17826   0.60969
C    C    0.89222   0.41851   0.30440
C    C    0.67006   0.11672   0.92823
C    C    0.84407   0.49564   0.76688
C    C    0.92833   0.38903   0.74738
C    C    0.98521   0.33264   0.64140
C    C    0.93818   0.59642   0.83658
C    C    0.98186   0.38689   0.75644
C    C    0.43549   0.74705   0.37261
C    C    0.58147   0.14914   0.92761
C    C    0.40428   0.09427   0.01807
C    C    0.47283   0.89253   0.20610
C    C    0.92679   0.47496   0.81121
C    C    0.62542   0.13380   0.88669
C    C    0.50052   0.92073   0.05612
C    C    0.20636   0.41779   0.66728
C    C    0.91390   0.55947   0.20157
C    C    0.62511   0.04958   0.72187
C    C    0.70956   0.91532   0.94463
C    C    0.54918   0.93679   0.70685
C    C    0.06414   0.34811   0.33907
C    C    0.60043   0.08207   0.66763
C    C    0.61324   0.72752   0.49456
C    C    0.71022   0.42686   0.58880
C    C    0.57832   0.18733   0.52261
C    C    0.71283   0.09174   0.05506
C    C    0.56711   0.98498   0.68402
C    C    0.88521   0.88502   0.13163
C    C    0.70205   0.99609   0.83683
C    C    0.03694   0.51351   1.01190
C    C    0.01069   0.35429   0.70555
C    C    0.06466   0.35742   0.70151
C    C    0.16646   0.44180   0.77967
C    C    1.00689   0.42709   0.79832
C    C    0.44627   0.72439   0.65541
C    C    0.40799   0.88794   0.02351
C    C    0.08950   0.38745   0.76037
C    C    0.06068   0.42350   0.80599
C    C    0.44828   0.89403   0.42089
C    C    0.86221   0.12906   0.01274
C    C    0.38099   0.87743   0.94944
C    C    0.09015   0.34357   0.62984
C    C    0.04881   0.70684   0.16519
C    C    0.59709   0.89753   0.06152
C    C    0.17559   0.54808   0.75058
C    C    0.62867   0.95151   0.76654
C    C    0.08003   0.33801   0.48258
C    C    0.76316   0.46864   0.36012
C    C    0.44274   0.06950   0.39765
C    C    0.85455   0.37872   0.65599
C    C    0.02789   0.92375   0.83896
C    C    0.11983   0.46543   0.17778
C    C    0.66124   0.51782   0.36785
C    C   -0.00196   0.14565   0.76916
C    C    0.13836   0.06024   0.07112
C    C    0.19135   1.00080   0.88867
C    C    0.11002   0.15060   0.89902
C    C    0.93315   0.33954   0.62694
C    C    0.00879   0.32582   0.56756
C    C    0.72259   0.55761   0.60039
C    C    0.54827   0.89855   0.03035
C    C    0.62560   0.88496   0.91976
C    C    0.90277   0.97526   0.06782
C    C    0.50144   0.01248   0.14211
C    C    0.84068   0.37142   0.57489
C    C    0.95677   0.36037   0.36153
C    C    0.09928   0.19667   0.93574
C    C    0.11201   0.15105   0.06130
C    C    0.35431   0.09165   0.81547
C    C    0.81051   0.44044   0.36193
C    C    0.79118   0.38596   0.55373
C    C    0.41686   0.90411   0.17630
C    C    0.90748   0.29767   1.00576
C    C    0.08199   0.37787   0.07239
C    C    0.14212   0.35716   0.61920
C    C    0.92380   0.34045   0.54334
C    C    0.66864   0.95063   0.82402
C    C    0.87760   0.35978   0.51385
C    C    0.61299   0.99686   0.72239
C    C    0.90846   0.46632   0.17463
C    C    0.86891   0.37842   0.43265
C    C    0.95043   0.38063   0.21435
C    C    0.09953   0.04821   0.12562
C    C    0.03051   0.34570   0.27248
C    C    0.56947   0.49766   0.34871
C    C    0.75991   0.52306   0.35687
C    C    0.71160   0.54573   0.37892
C    C    0.77886   0.39266   0.47304
C    C    0.29012   0.90589   0.04295
C    C    0.90331   0.36428   0.68241
C    C    0.93993   0.43379   0.04551
C    C    0.10479   0.19959   0.01997
C    C    0.08605   0.24355   0.05945
C    C    0.13089   0.10570   0.93889
C    C    0.99141   0.28879   0.92159
C    C    0.02815   0.21187   0.84046
C    C    0.08080   0.13507   0.83224
C    C    0.96310   0.21326   0.18139
C    C    0.06168   0.23722   0.13387
C    C    0.98015   0.26625   0.17632
C    C    0.64720   0.07492   0.78553
C    C    0.69198   0.40293   0.51843
C    C    0.10401   0.41264   0.19792
C    C    0.75007   0.07001   0.92991
C    C    0.87373   0.06939   0.87906
C    C    0.97817   0.35908   0.28311
C    C    0.87647   0.07850   0.03296
C    C    0.95424   0.17312   0.79986
C    C    0.78119   0.03151   0.89558
C    C    0.68520   0.47054   0.62154
C    C    0.11306   0.91790   0.87206
C    C    0.84425   0.93074   0.98438
C    C    0.83428   0.04039   0.92122
C    C    0.16313   0.97070   0.07356
C    C    0.08201   0.37100   0.15493
C    C    0.99815   0.17059   0.18063
C    C    0.06629   0.08931   0.14793
C    C    0.98918   0.34246   0.42723
C    C    0.90659   0.25557   0.94682
C    C    0.05988   0.22871   0.90110
C    C    0.93720   0.37993   0.06323
C    C    0.07693   0.07987   0.83619
C    C    0.91689   0.13578   0.81507
C    C    0.01660   0.07617   0.17221
C    C    0.62720   0.65648   0.59512
C    C    0.11825   0.95498   0.11083
C    C    0.08912   0.99519   0.14583
C    C    0.89217   0.96093   0.98748
C    C    0.83975   0.04339  -0.00015
C    C    0.79365   0.03752   0.04537
C    C    0.90342   0.93458   0.12852
C    C    0.05171   0.33054   0.19420
C    C    0.14173   0.89828   0.93707
C    C    0.86674   0.15788   0.93952
C    C    0.97819   0.44738   0.99065
C    C    0.04154   0.27061   0.94014
C    C    0.93554   0.34345   0.99568
C    C    0.94979   0.35779   0.13746
C    C    0.71929   0.44374   0.39341
C    C    0.81910   0.39995   0.41827
C    C    0.92818   0.52975   0.06285
C    C    0.91698   0.42174   0.22871
C    C    0.14946   0.57344   0.26371
C    C    0.06214   0.33940   0.02084
C    C    0.12932   0.39899   0.26905
C    C    0.03436   0.28007   0.17111
C    C    0.06282   0.88854   0.16839
C    C    0.06534   0.42771   0.04062
C    C    0.07941   0.14216   0.12772
C    C    0.97299   0.21754   0.84243
C    C    0.10036   0.50097   0.12100
C    C    0.10043   0.97217   0.86587
C    C    0.04207   0.16640   0.80085
C    C    0.06824   0.28750   0.00967
C    C    0.02275   0.36482   0.97568
C    C    0.97972   0.33670   0.95171
C    C    0.95352   1.00638   0.87637
C    C    0.04893   0.18363   0.15548
C    C    0.04434   0.34099   0.41654
C    C    0.01708   0.81644   0.82838
C    C    0.86087   0.16002   0.07684
C    C    0.87348   0.21253   0.96666
C    C    0.00458   0.02170   0.18457
C    C    0.91195   0.20337   0.16226
C    C    0.99102   0.09210   0.77945
C    C    0.95232   0.25364   0.89620
C    C    0.85989   0.21135   0.04994
C    C    0.62067   0.12101   0.80543
C    C    0.74997   0.98722   0.87848
C    C    0.85075   0.87489   0.99146
C    C    0.90629   0.28449   0.08935
C    C    0.92980   0.91443   0.87200
C    C    0.22254   0.03722   0.01575
C    C    0.88521   0.23871   0.10958
C    C    0.02719   0.05933   0.81654
C    C    0.92830   0.11092   0.14546
C    C    0.02269   0.41557   0.99117
C    C    0.13351   0.10730   0.02371
C    C    0.95586   1.00026   0.17163
C    C    0.97958   0.91059   0.20609
C    C    0.07678   0.81674   0.09499
C    C    0.04296   0.98192   0.18440
C    C    0.85706   0.85795   0.07154
C    C    0.11736   0.06199   0.89053
C    C    0.34406   0.95473   0.22193
C    C    0.92463   0.01847   0.10727
C    C    0.10152   0.90224   0.11359
C    C    0.94402   0.94800   0.18252
C    C    0.50149   0.96078   0.11579
C    C    0.03097   0.92785   0.19716
C    C    0.90155   0.79671   0.15274
C    C    0.89578   0.15330   0.14196
C    C    0.04556   0.97379   0.85810
C    C    0.87855   0.12605   0.87413
C    C    0.97992   0.11798   0.17310
C    C    0.93998   0.08624   0.79992
C    C    0.10603   0.85866   0.06144
C    C    0.93364   0.75194   0.16407
C    C    0.08807   0.82099   0.93038
C    C    0.63125   0.13957   0.05096
C    C    0.17989   0.52737   0.26144
C    C    0.91126   0.06941   0.09477
C    C    0.97774   0.85155   0.81283
C    C    0.06415   0.83714   0.85772
C    C    0.97839   0.90390   0.83163
C    C    0.11642   0.36577   0.33225
C    C    0.07034   0.88999   0.84374
C    C    0.96492   0.85739   0.20268
C    C    0.92547   0.96024   0.91621
C    C    0.02401   0.72380   0.23363
C    C    0.86910   0.84262   0.93087
C    C    0.00694   1.01296   0.85467
C    C    0.91465   0.84663   0.17772
C    C    0.05414   0.68364   0.95988
C    C    0.02345   0.72408   0.84842
C    C    0.06339   0.72299   0.08835
C    C    0.89285   0.72716   0.03976
C    C    0.07447   0.77316   0.96476
C    C    0.93046   0.82798   0.83228
C    C    0.90173   0.86471   0.87253
C    C    0.96463   0.61391   0.11427
C    C    0.07212   0.77124   0.05096
C    C    0.00151   0.81599   0.19608
C    C    0.01431   0.65557   0.92663
C    C    0.56490   0.06092   0.61583
C    C    0.75522   0.07422   0.01445
C    C   -0.00700   0.76654   0.83502
C    C    0.11545   0.85754   0.97844
C    C    0.06407   0.68018   0.04006
C    C    0.93753   0.77424   0.84857
C    C    0.05816   0.73069   0.91725
C    C    0.98357   0.76233   0.20329
C    C    0.58518   0.13819   0.17305
C    C    0.65972   0.09238   0.17211
C    C    0.28012   0.56831   0.41088
C    C    0.07733   0.65244   0.29438
C    C    0.51102   0.66541   0.70070
C    C    0.50722   0.14582   0.27996
C    C    0.18771   0.60976   0.46676
C    C    0.00389   0.60664   1.04538
C    C    0.47015   0.81660   0.63272
C    C    0.92485   0.59111   0.27189
C    C    0.58387   0.82984   0.44280
C    C    0.48263   0.90662   0.55666
C    C    0.67443   0.12091   0.01119
C    C    0.10363   0.55572   0.13376
C    C    0.95911   0.58162   0.92303
C    C    0.16751   0.43648   0.27955
C    C    0.15838   0.48041   0.23236
C    C    0.00341   0.66835   0.84431
C    C    0.87248   0.78890   0.94639
C    C    0.49790   0.99930   0.58595
C    C    0.98856   0.49856   0.98137
C    C    0.20459   0.43287   0.33567
C    C    0.46765   0.98441   0.45826
C    C    0.07138   0.48055   0.05612
C    C    0.11280   0.58539   0.20595
C    C    0.53888   0.14848   0.13922
C    C    0.15020   0.60158   0.33493
C    C    0.53674   0.14264   0.05650
C    C    0.63046   0.13108   0.13235
C    C    0.65516   0.94181   0.14510
C    C    0.62295   0.01454   0.22599
C    C    0.70427   0.01463   0.14579
C    C    0.86616   0.77224   0.02639
C    C    0.27007   0.05233   0.89620
C    C    0.86546   0.80509   0.08854
C    C    0.55052   0.09375   0.55532
C    C    0.94176   0.66566   0.99803
C    C    0.90721   0.75157   0.90993
C    C    0.58924   0.11142   0.24903
C    C    0.97818   0.62664   0.97078
C    C    0.91344   0.70878   0.96812
C    C    0.91966   0.71015   0.11030
C    C    0.72934   0.97766   0.09573
C    C    0.58326   0.14843   0.01156
C    C    0.66235   0.98978   0.18506
C    C    0.60766   0.91798   0.13816
C    C    0.69904   0.06856   0.13140
C    C    0.70391   0.08187   0.89281
C    C    0.77474   0.98727   0.05505
C    C    0.07772   0.58424   0.07713
C    C    0.79471   0.94946   0.99833
C    C    0.69510   0.93495   0.08846
C    C    0.04223   0.64870   0.16601
C    C    0.03990   0.56380   0.03135
C    C    0.04911   0.83452   0.16390
C    C    0.94241   0.66402   0.08149
C    C    0.75437   0.94311   0.93419
C    C    0.67021   0.91129   0.88412
C    C    0.51387   0.92048   0.17715
C    C    0.68620   0.90578   0.02026
C    C    0.62727   0.06955   0.23321
C    C    0.63546   0.88879   0.00454

