# CIF file generated by openbabel 2.3.2, see http://openbabel.sf.net
data_ISV_nozeolite_relaxed
_symmetry_cell_setting           triclinic
_symmetry_space_group_name_H-M   'P 1'
_symmetry_Int_Tables_number      1
loop_
_symmetry_equiv_pos_site_id
_symmetry_equiv_pos_as_xyz
1 x,y,z
_cell_length_a                   12.7694659964
_cell_length_b                   12.8667684418
_cell_length_c                   25.0150491709
_cell_angle_alpha                91.2092132956
_cell_angle_beta                 90.0965270803
_cell_angle_gamma                91.110918512
loop_
    _atom_site_label
    _atom_site_type_symbol
    _atom_site_fract_x
    _atom_site_fract_y
    _atom_site_fract_z
C    C    0.53294   0.86843   0.25633
C    C    0.97151   0.02971   0.18609
C    C    0.91445   0.12612   0.17866
C    C    0.11173   0.12508   0.23010
C    C    0.91760   0.92958   0.19548
C    C    0.78265   0.05721   0.32322
C    C    0.77550   0.84718   0.29661
C    C    0.25035   0.95784   0.22373
C    C    0.89004   0.84565   0.31153
C    C    0.08794   0.84773   0.20457
C    C    0.55975   0.07220   0.22548
C    C    0.14385   0.94392   0.20808
C    C    0.93798   0.66170   0.27977
C    C    0.96349   0.76419   0.30214
C    C    0.97929   0.83674   0.19859
C    C    0.46064   0.02319   0.22004
C    C    0.38433   0.09110   0.24470
C    C    1.00859   0.57626   0.29358
C    C    0.05848   0.27028   0.18523
C    C    0.28227   0.06357   0.24016
C    C    0.41487   0.14080   0.34129
C    C    0.19634   0.11291   0.26681
C    C    0.08019   0.03629   0.19984
C    C    0.79457   0.17761   0.24931
C    C    0.80902   0.92905   0.20729
C    C    0.33388   0.89039   0.24743
C    C    0.95549   0.22706   0.29844
C    C    0.44056   0.14952   0.28569
C    C    0.63235   0.90203   0.23642
C    C    0.47835   0.14362   0.43568
C    C    0.64552   0.00449   0.21602
C    C    0.75123   0.02156   0.20139
C    C    0.60128   0.13360   0.36294
C    C    0.74113   0.86645   0.24485
C    C    0.32250   0.86135   0.30263
C    C    0.17684   0.56426   0.07810
C    C    0.96862   0.12155   0.31866
C    C    0.41360   0.84046   0.33285
C    C    0.89362   0.45539   0.24571
C    C    0.10638   0.37148   0.18202
C    C    0.54927   0.14906   0.26955
C    C    0.34504   0.02996   0.41308
C    C    0.80868   0.11914   0.20296
C    C    0.24824   0.01571   0.33724
C    C    0.14001   0.74948   0.21467
C    C    0.14606   0.68437   0.16985
C    C    0.96386   0.68586   0.13752
C    C    0.14795   0.53690   0.22889
C    C    0.55955   0.09928   0.47173
C    C    0.62950   0.15421   0.30830
C    C    0.07932   0.22653   0.23487
C    C    0.95599   0.22576   0.16769
C    C    0.44114   0.91626   0.23187
C    C    0.11954   0.43049   0.23041
C    C    0.11841   0.87918   0.32547
C    C    0.05058   0.28881   0.28243
C    C    0.87180   0.25841   0.26539
C    C    0.93442   0.45257   0.04041
C    C    0.22766   0.90933   0.32857
C    C    1.02213   0.62633   0.03329
C    C    0.53868   0.85870   0.40082
C    C    0.06387   0.06877   0.33265
C    C    0.73412   0.13449   0.29456
C    C    0.05709   0.39394   0.27590
C    C    0.90095   0.64692   0.22591
C    C    0.16938   0.08746   0.31815
C    C    0.88975   0.04196   0.32213
C    C    0.90611   0.40494   0.13596
C    C    0.13218   0.71286   0.26840
C    C    0.04346   0.95846   0.33766
C    C    0.96370   0.39080   0.08533
C    C    0.87528   0.34974   0.22933
C    C    0.07540   0.78387   0.30591
C    C    0.11391   0.60531   0.27234
C    C    0.93356   0.42212   0.93487
C    C    0.34051   0.06486   0.35959
C    C    0.17247   0.57890   0.17731
C    C    0.88752   0.51171   0.15163
C    C    0.49845   0.15664   0.38163
C    C    0.93497   0.94140   0.32943
C    C    0.61122   0.01670   0.44089
C    C    0.36800   0.92464   0.42677
C    C    0.71676   0.98849   0.35584
C    C    0.17595   0.51555   0.12980
C    C    0.42785   0.85995   0.38948
C    C    0.07604   0.69816   0.12231
C    C    0.91842   0.59040   0.11398
C    C    0.51905   0.89603   0.55212
C    C    0.54251   0.10568   0.52571
C    C    0.89365   0.32503   0.17345
C    C    0.18196   0.49998   0.03226
C    C    0.34896   0.11571   0.62935
C    C    0.57025   0.91483   0.44988
C    C    0.70057   0.88351   0.34044
C    C    0.35480   0.09636   0.50602
C    C    0.59478   0.84362   0.35115
C    C    0.13125   0.39850   0.03673
C    C    0.06304   0.60111   0.98142
C    C    0.51703   0.83038   0.30897
C    C    0.62644   0.00939   0.75345
C    C    0.54696   0.10614   0.67591
C    C    0.97542   0.47395   0.28712
C    C    0.88379   0.53851   0.20758
C    C    0.93315   0.72640   0.18803
C    C    0.13997   0.62921   0.86318
C    C    0.10350   0.65025   0.07457
C    C    0.13046   0.41423   0.13232
C    C    0.15875   0.54794   0.98111
C    C    0.53878   0.11862   0.61965
C    C    0.33956   0.98553   0.52056
C    C    0.43620   0.14712   0.59644
C    C    0.43746   0.13993   0.54205
C    C    0.37365   0.10995   0.45279
C    C    0.17844   0.52812   0.88097
C    C    0.04446   0.66574   0.88639
C    C    0.34196   0.04701   0.77455
C    C    0.07749   0.37603   0.08468
C    C    0.60363   0.95378   0.58263
C    C    0.34274   0.95480   0.57316
C    C    0.07539   0.37060   0.98961
C    C    0.97090   0.40815   0.98869
C    C    0.64933   0.04956   0.38933
C    C    0.39236   0.91745   0.48174
C    C    0.45416   0.12636   0.70844
C    C    0.96801   0.34840   0.89192
C    C    0.85347   0.78807   0.68923
C    C    0.30754   1.01615   0.61984
C    C    0.59066   0.06518   0.57475
C    C    0.26588   0.12430   0.76678
C    C    0.42817   0.88879   0.58862
C    C    0.66971   0.83483   0.73701
C    C    0.35118   0.87801   0.68052
C    C    0.44376   0.06670   0.75493
C    C    0.80023   0.97918   0.68546
C    C    0.97733   0.93349   0.67170
C    C    0.54809   0.85551   0.66157
C    C    0.16412   0.65096   0.80734
C    C    0.62982   0.91702   0.63362
C    C    0.35487   0.15396   0.68449
C    C    0.44055   0.86575   0.64318
C    C    0.26554   0.94268   0.66130
C    C    0.37157   0.87800   0.73777
C    C    0.63177   0.05369   0.70062
C    C    0.70072   0.98824   0.66771
C    C    0.69884   0.92565   0.76964
C    C    0.51909   0.98720   0.76549
C    C    0.76188   0.77283   0.72453
C    C    0.00199   0.04337   0.67390
C    C    0.49926   0.89593   0.49719
C    C    0.84555   0.83612   0.80717
C    C    0.56504   0.83583   0.71625
C    C    0.15352   0.16155   0.68934
C    C    0.86171   0.02789   0.77916
C    C    0.48207   0.88405   0.75050
C    C    0.85015   0.05668   0.72572
C    C    0.97130   0.21627   0.70608
C    C    0.88010   0.46852   0.76565
C    C    0.80044   0.93395   0.79216
C    C    0.16068   0.36921   0.75697
C    C    0.18484   0.46734   0.78429
C    C    0.93934   0.56394   0.05857
C    C    0.03484   0.99050   0.82091
C    C    0.12889   0.38302   0.93996
C    C    1.00121   0.60383   0.93059
C    C    0.07903   0.24397   0.69467
C    C    0.10285   0.35366   0.70973
C    C    0.12507   0.71043   0.72244
C    C    0.08000   0.33523   0.89462
C    C    0.11189   0.05983   0.67504
C    C    0.03321   0.54431   0.69919
C    C    0.07014   0.87705   0.67993
C    C    0.17118   0.11380   0.79578
C    C    0.88897   0.53212   0.85847
C    C    0.12679   0.60185   0.71737
C    C    0.92454   0.29036   0.74425
C    C    0.87389   0.89442   0.67520
C    C    0.14678   0.73946   0.77869
C    C    0.03247   0.87808   0.82148
C    C    0.84165   0.64898   0.78661
C    C    0.80788   0.74815   0.77638
C    C    0.94396   0.81251   0.83375
C    C    0.14226   0.01664   0.81209
C    C    0.12855   0.84164   0.80135
C    C    0.02006   0.43479   0.70137
C    C    0.20130   0.92678   0.79603
C    C    0.09706   0.19183   0.80004
C    C    0.26398   0.16593   0.71388
C    C    0.13971   0.29674   0.79925
C    C    0.05212   0.77067   0.69222
C    C    0.92851   0.39603   0.73034
C    C    0.17290   0.48559   0.93333
C    C    0.87093   0.57197   0.74716
C    C    0.16999   0.56602   0.76774
C    C    0.99108   0.17032   0.80856
C    C    0.91545   0.34580   0.83933
C    C    0.14511   0.34860   0.84810
C    C    0.94059   0.61118   0.70637
C    C    0.87856   0.44524   0.82215
C    C    0.94674   0.72164   0.69236
C    C    0.95724   0.71361   0.85550
C    C    0.15967   0.95416   0.67602
C    C    0.18655   0.45186   0.84069
C    C    0.88597   0.63242   0.83788
C    C    0.92742   0.52496   0.91287
C    C    0.30349   0.94062   0.77575
C    C    0.95658   0.06395   0.80940
C    C    0.92772   0.26605   0.79958
C    C    0.93394   0.11542   0.69824

