# CIF file generated by openbabel 2.3.2, see http://openbabel.sf.net
data_BEB_nozeolite_relaxed.cif
_symmetry_cell_setting           triclinic
_symmetry_space_group_name_H-M   'P 1'
_symmetry_Int_Tables_number      1
loop_
_symmetry_equiv_pos_site_id
_symmetry_equiv_pos_as_xyz
1 x,y,z
_cell_length_a                   18.0684324321
_cell_length_b                   17.3187346341
_cell_length_c                   14.4862856917
_cell_angle_alpha                90.6610326693
_cell_angle_beta                 114.751975135
_cell_angle_gamma                89.5354473192
loop_
    _atom_site_label
    _atom_site_type_symbol
    _atom_site_fract_x
    _atom_site_fract_y
    _atom_site_fract_z
C    C    0.42243   0.74527   0.56329
C    C    0.48420   0.31853   0.17106
C    C    0.59369   0.42167   0.19117
C    C    0.55992   0.59411   0.54979
C    C    0.68669   0.21861   0.58613
C    C    0.68387   0.38611   0.37814
C    C    0.78278   0.10345   0.35639
C    C    0.73068   0.31788   0.37326
C    C    0.49500   0.69686   0.61483
C    C    0.61505   0.50538   0.45029
C    C    0.65353   0.34342   0.61469
C    C    0.53268   0.30197   0.36568
C    C    0.59048   0.49375   0.34179
C    C    0.53640   0.36051   0.13507
C    C    0.72059   0.29119   0.64021
C    C    0.71223   0.23559   0.34392
C    C    0.38371   0.54571   0.73287
C    C    0.55879   0.55864   0.46018
C    C    0.78049   0.18913   0.34667
C    C    0.62260   0.43274   0.30402
C    C    0.50875   0.65832   0.53479
C    C    0.61735   0.50719   0.87592
C    C    0.81926   0.05103   0.52346
C    C    0.62869   0.56087   0.14419
C    C    0.79601   0.30352   0.62855
C    C    0.54813   0.40862   0.97853
C    C    0.51125   0.36168   0.02696
C    C    0.42362   0.42723   0.36162
C    C    0.59461   0.70056   0.99768
C    C    0.80595   0.67945   0.15194
C    C    0.27646   0.62807   0.55059
C    C    0.64480   0.57190   0.83577
C    C    0.86309   0.21417   0.41040
C    C    0.76510   0.85258   0.95270
C    C    0.72892   0.69555   0.88802
C    C    0.40967   0.50320   0.66442
C    C    0.61410   0.45533   0.03618
C    C    0.22731   0.77688   0.58443
C    C    0.29794   0.59346   0.40688
C    C    0.27054   0.80929   0.41513
C    C    0.51400   0.53451   0.28749
C    C    0.12798   0.98876   0.64071
C    C    0.92258   0.89276   0.30994
C    C    0.62099   0.47389   0.13754
C    C    0.78102   0.35324   0.54301
C    C    0.11375   0.85392   0.59470
C    C    0.85066   0.23736   0.64252
C    C    0.86662   0.26475   0.49131
C    C    0.99482   0.06493   0.36831
C    C    0.50490   0.42940   0.87382
C    C    0.86287   0.69570   0.03721
C    C    0.75900   0.59200   1.00579
C    C    0.54033   0.47016   0.81931
C    C    0.67029   0.72787   0.08217
C    C    0.59785   0.56096   0.64777
C    C    0.18418   0.74017   0.48991
C    C    0.05335   0.82008   0.40522
C    C    0.71331   0.40372   0.48720
C    C    0.54120   0.66926   0.71533
C    C    0.48283   0.33636   0.27264
C    C    0.25317   0.39600   0.01468
C    C    0.39967   0.27388  -0.00468
C    C    0.98827   0.84591   0.31299
C    C    0.59461   0.60294   0.73059
C    C    0.89952   0.90888   0.88630
C    C    0.59284   0.71350   0.89863
C    C    0.99599   0.01900   0.28749
C    C    0.01711   0.14927   0.70962
C    C    0.84365   0.08516   0.62156
C    C    0.90797   0.23684   0.59234
C    C    0.91166   0.01181   0.09423
C    C    0.06507   0.97433   0.30566
C    C    0.04590   0.83809   0.49676
C    C    0.47948   0.39663   0.45394
C    C    0.47861   0.56560   0.09841
C    C    0.91741   0.91765   0.40155
C    C    0.92084   0.09828   0.36656
C    C    0.05489   0.10235   0.54855
C    C    0.17813   0.98706   0.58426
C    C    0.22887   0.92145   0.59340
C    C    0.00588   0.84978   0.22162
C    C    0.96290   0.80751   0.12975
C    C    0.87081  -0.00680   0.51124
C    C    0.08798   0.91784   0.63869
C    C    0.19417   0.91668   0.42049
C    C    0.43636   0.32905   0.96101
C    C    0.87076   0.98273   0.41265
C    C    0.99703   0.91957   0.58902
C    C    0.38345   0.38086   0.88158
C    C    0.17605   0.09117   0.90182
C    C    0.01029   0.17740   0.80318
C    C    0.30960   0.17432   0.05714
C    C    0.35848   0.49026   0.02153
C    C    0.80266   0.31741   0.46800
C    C    0.52524   0.44547   0.64072
C    C    0.84628   0.05680   0.35160
C    C    0.07622  -0.01156   0.85493
C    C    0.81381   0.16169   0.62524
C    C    0.97760   0.88453   0.49273
C    C    0.28670   0.18500   0.94853
C    C    0.08883   0.06255   0.64200
C    C    0.07059   0.08695   0.72295
C    C    0.13414   0.97388   0.40036
C    C    0.07269   0.22719   0.86308
C    C    0.97531   0.18500   0.61385
C    C    0.05986   0.19161   0.01663
C    C    0.20416   0.18147   0.12047
C    C    0.06141   0.94181   0.13952
C    C    0.85257   0.97220   0.00721
C    C    0.20289   0.16574   0.88252
C    C    0.59382   0.23766   0.40598
C    C    0.65477   0.19999   0.38146
C    C    0.05309   0.91589   0.22500
C    C    0.15536   0.29621   0.02015
C    C   -0.01247   0.15112   0.95503
C    C    0.87873   0.93272   0.21018
C    C    0.99574   0.95350   0.79859
C    C    0.12483   0.15183   0.09724
C    C    0.67051   0.45508   0.52452
C    C    0.05808   0.02837   0.12007
C    C    0.82110   0.64117   0.07273
C    C    0.72914   0.16339   0.56147
C    C    0.52711   0.33638   0.45306
C    C    0.10951   0.05104   0.82589
C    C    0.80415   0.91618   0.02461
C    C    0.53666   0.64870   0.00683
C    C    0.81199   0.72464   0.93766
C    C    0.93041   0.16540   0.42909
C    C    0.11773   0.06578   0.09898
C    C    0.89259   0.05093   0.89233
C    C    0.82186   0.80759   0.93148
C    C    0.04213   0.92087   0.96681
C    C    0.97124   0.83538   0.03943
C    C    0.90213   0.75301   0.11994
C    C    0.84283   0.75421   0.16755
C    C    0.94624   0.09494   0.98419
C    C    0.72396   0.66891   0.14191
C    C    0.75748   0.08956   0.43696
C    C    0.13384   1.01996   0.48350
C    C    0.89189   0.04466   0.70956
C    C    0.97389   0.91624   0.86748
C    C    0.60822   0.23381   0.51223
C    C    0.90801   0.07845   0.81090
C    C    0.78867   0.81921   0.13920
C    C    0.86719   0.97606   0.91187
C    C    0.96214   0.14384   0.84719
C    C    0.25033   0.13587   0.07869
C    C    0.97393   0.05547   0.07769
C    C    0.90053   0.84082   0.94771
C    C    0.55044   0.60047   0.09736
C    C    0.71265   0.55145   0.04793
C    C    0.35149   0.56207   0.36333
C    C    0.99358   0.15891   0.53090
C    C    0.49047   0.47358   0.70735
C    C    0.39426   0.46868   0.49601
C    C    0.46919   0.42800   0.53988
C    C    0.65298   0.43048   0.61146
C    C    0.45777   0.65807   0.81751
C    C    0.03312   0.89388   0.05222
C    C    0.38946   0.51486   0.82073
C    C    0.46676   0.62943   0.91415
C    C    0.32623   0.66730   0.64846
C    C    0.66866   0.74450   0.89810
C    C    0.58458   0.30332   0.54204
C    C    0.36705   0.51199   0.55727
C    C    0.52705   0.68816   0.80854
C    C    0.70747   0.79694   0.06560
C    C    0.93786   0.98275   0.70009
C    C    0.46472   0.53086   0.17751
C    C    0.38871   0.72505   0.45766
C    C    0.92178   0.99528   0.19435
C    C    0.69569   0.58925   0.12604
C    C    0.65118   0.49962   0.98500
C    C    0.08639   0.24926   0.96509
C    C    0.10096   0.97237   0.96199
C    C    0.06523   0.06860   0.46337
C    C    0.70396   0.14041   0.45598
C    C    0.15032   0.23125   0.85183
C    C    0.93582   0.96223   0.60318
C    C    0.81864   0.89498   0.12656
C    C    0.37470   0.48294   0.38868
C    C    0.29698   0.29274   0.13838
C    C    0.41216   0.54218   0.00139
C    C    0.30359   0.38612   0.88573
C    C    0.18916   0.30489   0.87642
C    C    0.21571   0.26379   0.11034
C    C    0.30281   0.37700   0.11869
C    C    0.41409   0.56529   0.91100
C    C    0.29670   0.43518   0.96281
C    C    0.42023   0.27208   0.10209
C    C    0.18737   0.34468   0.96187
C    C    0.35111   0.24189   0.11969
C    C    0.20195   0.07565   0.00716
C    C    0.36927   0.42328   0.17443
C    C    0.42717   0.39584   0.27349
C    C    0.42044   0.60897   0.36491
C    C    0.60659   0.47374   0.64841
C    C    0.13148   0.79368   0.40763
C    C    0.30055   0.73722   0.39881
C    C    0.49314   0.57186   0.36196
C    C    0.31625   0.75174   0.63012
C    C    0.31328   0.84779   0.51249
C    C    0.43992   0.67081   0.43789
C    C    0.26405   0.90950   0.51882
C    C    0.71487   0.61236   0.89991
C    C    0.31971   0.24937   0.92278
C    C    0.19654   0.84838   0.60811
C    C    0.30755   0.56857   0.50650
C    C    0.36335   0.78939   0.59066
C    C    0.38524   0.62988   0.72796
C    C    0.38997   0.48664   0.13005
C    C    0.25655   0.66669   0.39039
C    C    0.22484   0.67558   0.46967
C    C    0.70054   0.81105   0.96360
C    C    0.15239   0.02692   0.03612
C    C    0.41727   0.43329   0.84332
C    C    0.26612   0.31270   0.87050
C    C    0.18636   0.83711   0.37882

