# CIF file generated by openbabel 2.3.2, see http://openbabel.sf.net
data_SBT_1_nozeolite_relaxed
_symmetry_cell_setting           triclinic
_symmetry_space_group_name_H-M   'P 1'
_symmetry_Int_Tables_number      1
loop_
_symmetry_equiv_pos_site_id
_symmetry_equiv_pos_as_xyz
1 x,y,z
_cell_length_a                   17.5491994989
_cell_length_b                   17.6912217593
_cell_length_c                   41.0894539048
_cell_angle_alpha                92.3543093947
_cell_angle_beta                 89.3415104414
_cell_angle_gamma                119.197704144
loop_
    _atom_site_label
    _atom_site_type_symbol
    _atom_site_fract_x
    _atom_site_fract_y
    _atom_site_fract_z
C    C    0.99138   0.77901   0.80116
C    C    0.84430   0.80972   0.76954
C    C    0.03863   0.77230   0.86619
C    C    0.81235   0.78233   0.80082
C    C    0.10666   0.94841   0.74156
C    C    0.81057   0.78095   0.85772
C    C    0.14044   0.52904   0.77743
C    C    0.04710   0.72253   0.84021
C    C    0.72767   0.76040   0.81249
C    C    0.83224   0.87000   0.91018
C    C    0.18640   0.10865   0.74799
C    C    0.87846   0.90879   0.72917
C    C    0.25160   0.11340   0.79749
C    C    0.05132   0.03808   0.71614
C    C    0.86276   0.08589   0.80838
C    C    0.29591   0.76338   0.75883
C    C    0.81125   0.85748   0.75144
C    C    0.31769   0.91743   0.82594
C    C    0.04191   0.74039   0.80724
C    C    0.22706   0.45471   0.56708
C    C    0.94326   0.79005   0.82930
C    C    0.18209   0.02654   0.75133
C    C    0.16642   0.87843   0.77604
C    C    0.57624   0.80576   0.76800
C    C    0.10125   0.92633   0.91096
C    C    0.07996   0.30328   0.85697
C    C    0.22848   0.03214   0.78032
C    C    0.86091   0.78460   0.82871
C    C    0.21235   0.23425   0.78248
C    C    0.70335   0.97345   0.81411
C    C    0.66342   0.81626   0.77333
C    C    0.65685   0.75047   0.79382
C    C    0.14590   0.88543   0.90052
C    C    0.24540   0.11527   0.83152
C    C    0.00273   0.88108   0.91468
C    C    0.24134   0.18582   0.84839
C    C    0.93139   0.83136   0.75687
C    C    0.97952   0.80337   0.86129
C    C    0.18119   0.80503   0.77898
C    C    0.13813   0.02151   0.91011
C    C    0.07002   0.37558   0.84644
C    C    0.66642   0.92276   0.86980
C    C    0.85829   0.03078   0.74428
C    C    0.23483   0.97447   0.85368
C    C    0.89462  -0.00825   0.72191
C    C    0.95033   0.89162   0.73170
C    C    0.06703   0.14990   0.90469
C    C    0.74748   0.88269   0.76133
C    C    0.12820   0.73292   0.89899
C    C   -0.00060   0.82020   0.77019
C    C    0.03763   0.95486   0.72496
C    C    0.18141   0.06853   0.88268
C    C    0.42259   0.90258   0.85982
C    C    0.81492   0.01999   0.85977
C    C    0.15461   0.19948   0.89051
C    C    0.95772   0.12882   0.08319
C    C    0.63243   0.70413   0.86030
C    C    0.33308   0.42171   0.86105
C    C    0.08909   0.87381   0.75963
C    C    0.93024   0.11600   0.75475
C    C    0.89382   0.92165   0.93440
C    C    0.08860   0.65296   0.87961
C    C    0.72865   0.97527   0.84732
C    C    0.01322   0.21025   0.80517
C    C    0.53216   0.80947   0.90798
C    C    0.58334   0.91211   0.86534
C    C    0.10796   0.43814   0.90285
C    C    0.92423   0.01729   0.93682
C    C    0.58821   0.71196   0.89013
C    C    0.60920   0.92889   0.80611
C    C    0.22602   0.95828   0.79187
C    C    0.09897   0.79103   0.89291
C    C    0.26754   0.27190   0.83916
C    C    0.21008   0.74849   0.91430
C    C    0.21662   0.04409   0.85490
C    C    0.10935   0.72822   0.78796
C    C    0.14453   0.51317   0.92439
C    C    0.78519   0.97895   0.76287
C    C    0.85706   0.82023   0.88720
C    C    0.28898   0.82411   0.90604
C    C    0.02411   0.21783   0.84006
C    C    0.64609   0.33427   0.31200
C    C    0.54853   0.31992   0.38958
C    C    0.12367   0.11561   0.73036
C    C    0.94633   0.83494   0.88793
C    C    0.55116   0.86786   0.77901
C    C    0.68742   0.87470   0.89197
C    C    0.77975   0.01712   0.79409
C    C    0.83413   0.99348   0.88913
C    C    0.37429   0.49105   0.88618
C    C    0.16155   0.39850   0.90419
C    C    0.07245   0.43539   0.87192
C    C    0.09296   0.58003   0.88812
C    C    0.55708   0.92347   0.83402
C    C    0.98268   0.12309   0.89075
C    C    0.40778   0.74247   0.72919
C    C    0.44202   0.87320   0.88889
C    C    0.08486   0.40144   0.81359
C    C    0.07383   0.52996   0.83030
C    C    0.07738   0.60765   0.82202
C    C    0.52148   0.87187   0.89030
C    C    0.34573   0.90714   0.85727
C    C    0.47160   0.91102   0.83110
C    C    0.29551   0.67919   0.93407
C    C    0.00252   0.13406   0.73414
C    C    0.13898   0.32604   0.88371
C    C    0.21311   0.67407   0.92561
C    C    0.14111   0.58765   0.91709
C    C    0.45859   0.84997   0.77638
C    C    0.22872   0.92190   0.88204
C    C    0.28687   0.88844   0.88404
C    C    0.37016   0.82160   0.90930
C    C    0.29750   0.60138   0.93982
C    C    0.22177   0.51992   0.93777
C    C    0.88172   0.08783   0.84255
C    C    0.23917   0.45493   0.92303
C    C    0.37564   0.75220   0.92441
C    C    0.50585   0.64588   0.78100
C    C    0.06982   0.51087   0.86390
C    C    0.26312   0.95258   0.82359
C    C    0.42627   0.88717   0.80056
C    C    0.34195   0.88048   0.79852
C    C    0.44685   0.65798   0.92003
C    C    0.60759   0.79736   0.90110
C    C    0.93656   0.14186   0.78882
C    C    0.36767   0.58781   0.92879
C    C    0.09312   0.48287   0.80584
C    C    0.42676   0.52807   0.81910
C    C    0.45544   0.69579   0.73379
C    C    0.06713   0.65862   0.84748
C    C    0.45752   0.56461   0.87776
C    C    0.39917   0.60832   0.71628
C    C    0.09153   0.27403   0.78706
C    C    0.48582   0.57863   0.84456
C    C    0.11328   0.64954   0.79258
C    C    0.51169   0.71244   0.75964
C    C    0.56715   0.65081   0.83611
C    C    0.26190   0.62914   0.72880
C    C    0.23187   0.67164   0.75093
C    C    0.15988   0.61756   0.77248
C    C    0.32429   0.60013   0.65796
C    C    0.33749   0.54771   0.73827
C    C    0.27385   0.81882   0.77722
C    C    0.45391   0.74287   0.92108
C    C    0.39093   0.78943   0.75422
C    C    0.12126   0.36074   0.79080
C    C    0.35657   0.44639   0.82809
C    C    0.09360   0.17424   0.74239
C    C    0.19151   0.49646   0.76099
C    C    0.19448   0.28611   0.88486
C    C    0.22871   0.16411   0.77587
C    C    0.77668   0.90573   0.89843
C    C    0.43313   0.56018   0.78646
C    C    0.28254   0.43582   0.77783
C    C    0.29987   0.77346   0.58059
C    C    0.24178   0.68370   0.59018
C    C    0.77351   0.37127   0.26886
C    C    0.35624   0.51408   0.76635
C    C    0.13817   0.23409   0.76813
C    C    0.33133   0.49969   0.91477
C    C    0.71999   0.75046   0.84711
C    C    0.35947   0.62445   0.68820
C    C    0.57584   0.67950   0.80378
C    C    0.19835   0.42539   0.77389
C    C    0.25449   0.54724   0.73828
C    C    0.32933   0.67016   0.63786
C    C    0.39377   0.80908   0.58337
C    C    0.35196   0.53751   0.60734
C    C    0.53339   0.80418   0.54843
C    C    0.29939   0.38911   0.80292
C    C    0.19153   0.40460   0.53719
C    C    0.33733   0.68040   0.70878
C    C    0.18492   0.75001   0.53915
C    C    0.16778   0.62832   0.57026
C    C    0.48987   0.74304   0.57192
C    C    0.19100   0.50520   0.58318
C    C    0.09665   0.35851   0.48786
C    C    0.13162   0.73864   0.48086
C    C   -0.00296   0.62611   0.51208
C    C    0.13976   0.53849   0.56776
C    C    0.12993   0.66271   0.54782
C    C    0.07683   0.60503   0.42903
C    C    0.23420   0.35156   0.48643
C    C    0.24497   0.37453   0.52033
C    C    0.42393   0.62439   0.60481
C    C    0.26428   0.47866   0.40389
C    C    0.17415   0.75338   0.45007
C    C    0.18272   0.78968   0.50971
C    C    0.50298   0.64235   0.89816
C    C    0.16396   0.35138   0.47010
C    C    0.04285   0.40605   0.53472
C    C    0.26438   0.80725   0.55735
C    C    0.45098   0.45619   0.56886
C    C    0.15928   0.53836   0.40111
C    C    0.36013   0.43856   0.56263
C    C    0.42334   0.45203   0.43206
C    C    0.57526   0.84305   0.49326
C    C    0.04307   0.60869   0.53785
C    C    0.30152   0.89076   0.54231
C    C    0.12120   0.39803   0.42197
C    C    0.31376   0.47535   0.57870
C    C    0.76601   0.30125   0.61331
C    C    0.65937   0.38414   0.60967
C    C    0.90752   0.59917   0.51383
C    C    0.78282   0.58331   0.54827
C    C    0.32179   0.38341   0.53472
C    C    0.30577   0.35344   0.46813
C    C    0.74054   0.54003   0.57697
C    C    0.01896   0.60054   0.45449
C    C   -0.00027   0.52140   0.55175
C    C    0.80753   0.38994   0.60796
C    C    0.59630   0.59853   0.51118
C    C    0.73429   0.58740   0.52268
C    C    0.64900   0.57562   0.53167
C    C    0.52347   0.61863   0.55961
C    C    0.92243   0.49166   0.56932
C    C    0.86175   0.36252   0.44478
C    C    0.64993   0.50272   0.58141
C    C    0.10963   0.38662   0.52174
C    C    0.87248   0.53709   0.57062
C    C    0.01724   0.45150   0.42933
C    C    0.17465   0.36887   0.43689
C    C    0.53840   0.81664   0.46157
C    C    0.33541   0.56183   0.40301
C    C    0.45102   0.68535   0.42582
C    C    0.54888   0.70237   0.50670
C    C    0.04845   0.66062   0.48176
C    C    0.51863   0.59668   0.46103
C    C    0.79322   0.50788   0.58979
C    C    0.52852   0.88341   0.55232
C    C    0.54381   0.06963   0.44876
C    C    0.31972   0.63433   0.39927
C    C    0.93627   0.52202   0.45359
C    C    0.80015   0.26272   0.59032
C    C    0.53348   0.23570   0.60376
C    C    0.26121   0.41004   0.42366
C    C    0.23363   0.62302   0.39812
C    C    0.52114   0.88492   0.45121
C    C    0.50876   0.72933   0.45183
C    C    0.57410   0.47148   0.43452
C    C    0.60969   0.54004   0.56147
C    C    0.66443   0.10994   0.52314
C    C    0.51606   0.35932   0.58674
C    C    0.14952   0.68504   0.42596
C    C    0.55671   0.64319   0.52751
C    C    0.02737   0.35888   0.46943
C    C    0.55990   0.78419   0.51770
C    C    0.40759   0.93045   0.44659
C    C    0.52985   0.67859   0.47283
C    C    0.67421   0.25142   0.61302
C    C    0.17660   0.46866   0.40256
C    C    0.39182   0.71257   0.41249
C    C    0.25563   0.63948   0.61547
C    C    0.25500   0.87722   0.51186
C    C    0.42735   0.12649   0.56975
C    C    0.62038   0.29122   0.61386
C    C    0.32737   0.39885   0.43820
C    C    0.75516   0.43215   0.60708
C    C    0.60616   0.41918   0.59670
C    C    0.76450   0.57919   0.49019
C    C    0.56162   0.12025   0.58317
C    C    0.88035   0.41073   0.58564
C    C    0.84619   0.57617   0.48611
C    C    0.41897   0.59390   0.41978
C    C    0.85610   0.52774   0.45948
C    C    0.86408   0.58179   0.54462
C    C    0.40415   0.28278   0.46675
C    C    0.04567   0.39031   0.43686
C    C    0.86944   0.32949   0.57281
C    C    0.64976   0.17473   0.59256
C    C    0.45682   0.88671   0.56773
C    C    0.05872   0.48228   0.55183
C    C    0.50091   0.14800   0.59143
C    C    0.48476   0.27034   0.58950
C    C    0.95038   0.34277   0.48622
C    C    0.57160   0.95971   0.47300
C    C    0.58850   0.14839   0.43498
C    C    0.52405   0.53654   0.56758
C    C    0.59543   0.92890   0.50050
C    C    0.57998   0.95277   0.53162
C    C    0.37782   0.97072   0.55253
C    C    0.45717   0.54890   0.43523
C    C    0.53807   0.04365   0.56276
C    C    0.48407   0.65905   0.57805
C    C    0.72992   0.18994   0.57526
C    C    0.63231   0.39895   0.39450
C    C    0.67565   0.24817   0.38624
C    C    0.40068   0.69082   0.61596
C    C    0.80371   0.24290   0.52217
C    C    0.72239   0.26034   0.41564
C    C    0.93937   0.44850   0.44255
C    C    0.77548   0.41505   0.41287
C    C    0.54010   0.17400   0.41367
C    C    0.79288   0.34728   0.42350
C    C    0.58004   0.20618   0.38501
C    C    0.68076   0.19940   0.44025
C    C    0.73346   0.17837   0.54046
C    C    0.35025   0.02517   0.48787
C    C    0.71276   0.18980   0.47169
C    C    0.35973   0.32543   0.48499
C    C    0.47812   0.41676   0.43208
C    C    0.29553   0.77298   0.41977
C    C    0.64004   0.45846   0.41897
C    C    0.95554   0.35277   0.52047
C    C    0.47915   0.19944   0.42795
C    C    0.38439   0.05752   0.54653
C    C    0.70552   0.54898   0.46388
C    C    0.39955   0.22861   0.53866
C    C    0.87976   0.31065   0.53905
C    C    0.79405   0.24784   0.48753
C    C    0.26367   0.30054   0.80740
C    C    0.48974   0.28112   0.41817
C    C    0.65699   0.11425   0.48911
C    C    0.71133   0.39055   0.38763
C    C    0.78817   0.48579   0.43547
C    C    0.84075   0.50805   0.23818
C    C    0.40863   0.06915   0.46198
C    C    0.42971   0.15737   0.45578
C    C    0.53578   0.36541   0.23892
C    C    0.86641   0.31392   0.47049
C    C    0.62799   0.30387   0.34212
C    C    0.55910   0.26523   0.36616
C    C    0.74329   0.57290   0.23261
C    C    0.72009   0.50583   0.43684
C    C    0.69823   0.31914   0.36537
C    C    0.57069   0.24347   0.24502
C    C    0.61524   0.53147   0.46061
C    C    0.56526   0.15275   0.13620
C    C    0.63896   0.14147   0.21800
C    C    0.68946   0.31663   0.28381
C    C    0.57540   0.14727   0.19957
C    C    0.77154   0.23779   0.24619
C    C    0.39807   0.20279   0.47735
C    C    0.57551   0.57303   0.47841
C    C    0.41173   0.31576   0.54086
C    C    0.67748   0.19490   0.24684
C    C    0.49155   0.16391   0.12971
C    C    0.58093   0.12058   0.16571
C    C    0.41063   0.11903   0.14626
C    C    0.64406   0.09205   0.16524
C    C    0.68559   0.54132   0.09665
C    C    0.49479   0.44294   0.15244
C    C    0.70356   0.16250   0.11483
C    C    0.53660   0.19443   0.21405
C    C    0.87681   0.38845   0.22744
C    C    0.64246   0.24839   0.09059
C    C    0.57507   0.27214   0.08944
C    C    0.94665   0.24681   0.10652
C    C    0.98092   0.33090   0.15901
C    C    0.89091   0.47443   0.21971
C    C    0.67593   0.49822   0.24751
C    C    0.72659   0.30337   0.07657
C    C    0.42426   0.24087   0.10416
C    C    0.40191   0.10786   0.18039
C    C    0.63467   0.36594   0.28120
C    C    0.33256   0.10107   0.12972
C    C    0.63466   0.18388   0.11278
C    C    0.67611   0.41074   0.06737
C    C    0.81430   0.33410   0.25067
C    C    0.75496   0.06380   0.13440
C    C    0.45995   0.18369   0.20148
C    C    0.91759   0.73121   0.12671
C    C    0.88498   0.37013   0.08731
C    C    0.63792   0.23757   0.26213
C    C    0.72033   0.50323   0.07486
C    C    0.95561   0.45712   0.16671
C    C    0.59664   0.48497   0.10706
C    C    0.74626   0.62356   0.11443
C    C    0.93395   0.50794   0.11053
C    C    0.69751   0.09859   0.13758
C    C    0.63928   0.56710   0.19201
C    C    0.54557   0.39482   0.09487
C    C    0.18234   0.97625   0.12006
C    C    0.73998   0.38257   0.06428
C    C    0.78664   0.21604   0.10078
C    C    0.94700   0.38586   0.11347
C    C    0.78994   0.05919   0.19169
C    C    0.59363   0.35657   0.07931
C    C    0.81151   0.53097   0.07572
C    C    0.95770   0.38340   0.17916
C    C    0.56739   0.31802   0.25616
C    C    0.86494   0.59482   0.09891
C    C    0.43131   0.36722   0.13430
C    C    0.58867   0.45640   0.23416
C    C    0.36389   0.33955   0.51868
C    C    0.90721   0.74684   0.23120
C    C    0.43093   0.35825   0.19975
C    C    0.49528   0.22145   0.10589
C    C    0.77390   0.70425   0.19784
C    C    0.83882   0.65424   0.11241
C    C    1.03725   0.74711   0.19797
C    C    0.95966   0.46122   0.13207
C    C    0.72006   0.61854   0.20902
C    C    0.70067   0.45188   0.26796
C    C    0.41658   0.22430   0.21868
C    C    0.23844   1.03543   0.24684
C    C    0.17579   0.91478   0.18419
C    C    0.78112   0.45267   0.26127
C    C    0.67926   0.10504   0.19777
C    C    0.82360   0.10257   0.11065
C    C    0.25135   0.99205   0.17319
C    C    0.57191   0.48992   0.20585
C    C    0.06334   0.81607   0.22189
C    C    0.25569   0.16346   0.09630
C    C    0.79763   0.81267   0.15353
C    C    0.63818   0.57897   0.15762
C    C    0.93305   0.50927   0.18912
C    C    0.92311   0.57847   0.11835
C    C    0.57300   0.50621   0.13787
C    C    0.09214   0.24238   0.10851
C    C    0.46014   0.33713   0.10683
C    C    0.03776   0.87210   0.10908
C    C    0.33768   0.16923   0.10951
C    C    0.90236   0.66264   0.22388
C    C    0.82494   0.90164   0.20587
C    C    0.96948   0.66377   0.20510
C    C    0.95249   0.59507   0.18023
C    C    0.20483   0.28994   0.15132
C    C    1.00136   0.21303   0.09910
C    C    0.25538   1.02358   0.14083
C    C    0.42364   0.20474   0.56712
C    C    0.85169   0.97889   0.09265
C    C    0.11233   0.89641   0.12993
C    C    0.71439   0.64765   0.14353
C    C    0.97463   0.71482   0.14558
C    C    0.45800   0.31845   0.22169
C    C    0.30751   0.07499   0.22620
C    C    0.32329   0.04992   0.19427
C    C    0.22844   0.22610   0.10281
C    C    0.19162   0.08469   0.07896
C    C    0.82885   0.58214   0.23166
C    C    0.06845   0.93247   0.08399
C    C    0.14183   0.21004   0.09081
C    C    0.04696   0.77516   0.16596
C    C    0.93387   0.14580   0.21418
C    C    0.79086   0.94587   0.15127
C    C    0.16031   0.95644   0.24310
C    C    0.34734   0.31443   0.14978
C    C    0.33986   0.16784   0.23130
C    C    0.88852   0.84132   0.09988
C    C    0.77014   1.01361   0.15972
C    C    1.00341   0.90154   0.24968
C    C    0.80991   0.19873   0.22728
C    C    0.95269   0.62583   0.14919
C    C    0.49450   0.43735   0.18721
C    C    0.46023   0.37701   0.56586
C    C    0.97220   0.92917   0.00217
C    C    0.76585   0.72489   0.16498
C    C    0.09896   0.14663   0.06441
C    C    0.89104   0.25841   0.21370
C    C    0.20510   0.28463   0.18595
C    C    0.99502   0.26736   0.17470
C    C    0.84387   0.76806   0.21944
C    C    0.23895   0.23022   0.23434
C    C    0.09070   0.96706   0.25688
C    C    0.21889   0.09999   0.26131
C    C    0.12802   0.06097   0.26474
C    C    0.09431   0.11513   0.25754
C    C    1.00476   0.15487   0.23152
C    C    0.26759   0.27623   0.20347
C    C    0.27405   0.18076   0.24745
C    C    0.81521   0.92428   0.11954
C    C    0.12146   0.27481   0.14065
C    C    0.13880   0.09569   0.05484
C    C    0.91924   0.89345   0.07228
C    C    0.86781   0.98984   0.21945
C    C    0.07140   0.26326   0.16914
C    C    0.79521   0.88295   0.17331
C    C    0.94069   0.22430   0.20015
C    C    0.14264   0.89344   0.21735
C    C    0.93398   0.91744   0.24241
C    C    0.11244   0.86106   0.15970
C    C    0.03676   0.95253   0.02859
C    C    0.14952   0.19888   0.24350
C    C    0.09293   0.22076   0.22638
C    C    1.00518   0.08540   0.24749
C    C    0.93744   1.00128   0.24051
C    C    0.45144   0.96590   0.56441
C    C    0.94457   0.02309   0.04283
C    C    0.07105   0.11066   0.93360
C    C    0.86156   0.85499   0.22328
C    C    0.34709   0.31125   0.18405
C    C    0.37771   0.16932   0.51067
C    C    0.76042   0.11505   0.20639
C    C    0.11977   0.26091   0.19678
C    C    0.86293   0.06251   0.20903
C    C    0.01962   0.07591   0.98922
C    C    1.00292   0.10578   0.06010
C    C    0.15854   0.99929   0.09005
C    C    0.94718   0.81295   0.11275
C    C    0.80197   0.29448   0.08540
C    C    0.99224   0.81789   0.23882
C    C    0.44266   0.87098   0.43686
C    C    0.59472   0.03688   0.54036
C    C    0.82601   0.84798   0.12162
C    C    0.87312   0.06901   0.09497
C    C    0.26324   0.81283   0.44345
C    C    0.82343   0.45840   0.06793
C    C    0.99848   0.07869   0.95692
C    C    0.88975   0.45155   0.08302
C    C    1.00782   0.92064   0.05983
C    C    0.96486   0.14419   0.85845
C    C    0.30203   0.93421   0.48568
C    C    0.10772   0.04018   0.02587
C    C    0.98035   0.05476   0.71490
C    C    0.38225   0.78793   0.42105
C    C    0.58804   0.04356   0.47034
C    C    0.91442   0.34736   0.20845
C    C    0.26537   0.28159   0.13202
C    C    0.22449   0.69442   0.40875
C    C    0.31928   0.89170   0.45787
C    C    0.36144   0.08224   0.51630
C    C    0.85238   0.19157   0.10409
C    C    0.96959   0.32770   0.12535
C    C    0.45069   0.02078   0.44868
C    C    0.96590   0.90443   0.94107
C    C    0.10511   0.07681   0.99534
C    C    0.91299   0.04773   0.90623
C    C    0.95594   1.00373   0.01066
C    C    0.09455   0.01713   0.96797
C    C    0.11373   0.05956   0.93670
C    C    0.19690   0.15443   0.87780
C    C    0.01437   0.93712   0.97091
C    C    0.45158   0.32251   0.43761
C    C    0.89326   0.95710   0.06690
C    C    0.27191   0.33072   0.86504
C    C    0.07946   0.52980   0.41556
C    C    0.22681   0.54726   0.61276
C    C    0.43027   0.75524   0.59256
C    C    0.29213   0.53385   0.63173

