# CIF file generated by openbabel 2.3.2, see http://openbabel.sf.net
data_IWS_2_nozeolite_relaxed
_symmetry_cell_setting           triclinic
_symmetry_space_group_name_H-M   'P 1'
_symmetry_Int_Tables_number      1
loop_
_symmetry_equiv_pos_site_id
_symmetry_equiv_pos_as_xyz
1 x,y,z
_cell_length_a                   27.7884536482
_cell_length_b                   27.8749506774
_cell_length_c                   13.4838616455
_cell_angle_alpha                89.0664694558
_cell_angle_beta                 90.716278533
_cell_angle_gamma                90.5740480377
loop_
    _atom_site_label
    _atom_site_type_symbol
    _atom_site_fract_x
    _atom_site_fract_y
    _atom_site_fract_z
C    C    0.00019   0.33078   0.42197
C    C    0.87874   0.27589   0.36675
C    C    0.80532   0.37611   0.15342
C    C    0.93910   0.19775   0.40866
C    C    0.98265   0.33440   0.58515
C    C    0.09391   0.16376   0.51359
C    C    0.02154   0.34578   0.51550
C    C    0.09480   0.21986   0.34168
C    C    0.95607   0.26438   0.68055
C    C    0.95871   0.17371   0.49384
C    C    0.73082   0.32072   0.23993
C    C    0.01164   0.24845   0.36795
C    C    0.89585   0.30778   0.57942
C    C    0.84705   0.30518   0.53069
C    C    0.33545   0.18950   0.40209
C    C    0.87865   0.19439   0.69571
C    C    0.74386   0.09371   0.68725
C    C    0.00649   0.18320   0.53600
C    C    0.88980   0.19115   0.38389
C    C    0.84048   0.29969   0.42388
C    C    0.73935   0.02949   0.32589
C    C    0.71158   0.26119   0.41225
C    C    0.82215   0.28886   0.13026
C    C    0.15647   0.33006   0.45142
C    C    0.10445   0.33092   0.45495
C    C    0.19376   0.18473   0.70923
C    C    0.07080   0.34052   0.53792
C    C    0.93674   0.32981   0.53369
C    C    0.24072   0.32262   0.51991
C    C    0.08020   0.30364   0.38020
C    C    0.96189   0.24204   0.37318
C    C    0.83868   0.15904   0.69072
C    C    0.67218   0.17086   0.36344
C    C    0.80300   0.08928   0.37594
C    C    0.69831   0.24841   0.31262
C    C    0.79945   0.16077   0.75858
C    C    0.79140   0.30260   0.37982
C    C    0.62613   0.23774   0.16759
C    C    0.82399   0.21556   0.26761
C    C    0.54850   0.31559   0.11991
C    C    0.68330   0.19099   0.63263
C    C    0.75341   0.13451   0.74764
C    C    0.04916   0.21144   0.38649
C    C    0.99368   0.29773   0.65465
C    C    0.31232   0.28342   0.59274
C    C    0.75930   0.29242   0.55181
C    C    0.16042   0.07968   0.54518
C    C    0.17666   0.23287   0.73606
C    C    0.96429   0.21389   0.67333
C    C    0.32745   0.13687   0.40233
C    C    0.29574   0.02176   0.37205
C    C    0.30069   0.28306   0.41624
C    C    0.24201   0.16819   0.73052
C    C    0.65045   0.21432   0.97112
C    C    0.69317   0.23686   0.58498
C    C    0.33330   0.22021   0.31492
C    C    0.31533   0.26744   0.32245
C    C    0.53891   0.28717   0.84404
C    C    0.73158   0.85500   0.30664
C    C    0.92882   0.28271   0.38017
C    C    0.48770   0.15985   0.02069
C    C    0.36590   0.29298   0.84013
C    C    0.33754   0.18842   0.59367
C    C    0.77376   0.99173   0.34114
C    C    0.69968   0.18368   0.10451
C    C    0.90715   0.27698   0.66202
C    C    0.92227   0.15809   0.56190
C    C    0.82355   0.07846   0.61014
C    C    0.82002   0.52994   1.00852
C    C    0.16354   0.15596   0.64424
C    C    0.33785   0.11212   0.49549
C    C    0.65460   0.22680   0.77293
C    C    0.83502   0.26651   0.75977
C    C    0.31382   0.36231   0.11810
C    C    0.15253   0.28602   0.29760
C    C    0.33287   0.13865   0.58612
C    C    0.13189   0.18380   0.35387
C    C    0.17909   0.10770   0.62606
C    C    0.29095   0.11487   0.34085
C    C    0.80609   0.30331   0.59513
C    C    0.69528   0.37711   0.91172
C    C    0.86222   0.15281   0.42887
C    C    0.87652   0.14048   0.52814
C    C    0.79749   0.92257   0.64486
C    C    0.68873   0.26675   0.78839
C    C    0.67929   0.09339   0.44648
C    C    0.68026   0.92930   0.54815
C    C    0.22911   0.31690   0.34434
C    C    0.18936   0.21690   0.21938
C    C    0.35633   0.18596   0.98072
C    C    0.40412   0.18614   0.02904
C    C    0.17580   0.18359   0.29875
C    C    0.17358   0.30765   0.85639
C    C    0.22005   0.06225   0.36812
C    C    0.11668   0.17346   0.60898
C    C    0.81189   0.32909   0.19362
C    C    0.66776   0.01493   0.51964
C    C    0.25185   0.20378   0.89678
C    C    0.22272   0.08811   0.66964
C    C    0.44449   0.16971   0.97082
C    C    0.17646   0.28693   0.03136
C    C    0.09974   0.21735   0.65264
C    C    0.72986   0.49807   0.84695
C    C    0.87310   0.24364   0.70819
C    C    0.02985   0.29687   0.37556
C    C    0.04928   0.18343   0.47554
C    C    0.84285   0.12538   0.61014
C    C    0.31321   0.06115   0.61884
C    C    0.81379   0.25700   0.95812
C    C    0.73695   0.58510   0.86257
C    C    0.10744   0.26935   0.32703
C    C    0.80734   0.29971   0.70545
C    C    0.75979   0.32695   0.85066
C    C    0.72323   0.27325   0.61903
C    C    0.27179   0.38768   0.15817
C    C    0.44756   0.18992   0.87325
C    C    0.31417   0.18523   0.03893
C    C    0.49304   0.20768   0.83659
C    C    0.12690   0.15031   0.43678
C    C    0.12898   0.30067   0.65769
C    C    0.95020   0.32294   0.43070
C    C    0.17690   0.30055   0.13175
C    C    0.64037   0.32550   0.12473
C    C    0.71311   0.94506   0.62548
C    C    0.66349   0.40858   0.97171
C    C    0.80173   0.19419   0.84183
C    C    0.79708   0.44629   0.91189
C    C    0.21060   0.95626   0.62425
C    C    0.57139   0.17022   0.02442
C    C    0.66952   0.18752   0.46030
C    C    0.72342  -0.00645   0.64700
C    C    0.34295   0.20937   0.20856
C    C    0.31271   0.18286   0.14975
C    C    0.26051   0.33331   0.69133
C    C    0.32423   0.19119   0.79334
C    C    0.18992   0.33104   0.53304
C    C    0.66617   0.96742   0.48427
C    C    0.69055   0.01688   0.35331
C    C    0.70734   0.93071   0.34688
C    C    0.67896   0.96928   0.38010
C    C    0.23444   0.03854   0.66120
C    C    0.65178   0.28417   0.18043
C    C    0.71302   0.33004   0.89755
C    C    0.77345   0.48653   0.13507
C    C    0.81122   0.48479   0.06343
C    C    0.40759   0.26280   0.83069
C    C    0.21069   0.33500   0.70313
C    C    0.32504   0.01940   0.46104
C    C    0.72923   0.11721   0.29846
C    C    0.68895   0.28540   0.88639
C    C    0.32644   0.38614   0.02481
C    C    0.27426   0.31705   0.59906
C    C    0.26887   0.19779   0.99673
C    C    0.69306   0.44955   0.11945
C    C    0.28283   0.02296   0.64370
C    C    0.75890   0.07664   0.32534
C    C    0.41736   0.21203   0.11428
C    C    0.17478   0.32659   0.63190
C    C    0.81833   0.34913   0.98648
C    C    0.37305   0.28930   0.13751
C    C    0.75216   0.28895   0.44715
C    C    0.67033   0.40747   0.07579
C    C    0.76320   0.30873   0.75811
C    C    0.45314   0.28601   0.84814
C    C    0.82211   0.29851   0.02280
C    C    0.22149   0.46574   0.15233
C    C    0.19585   0.34317   0.80119
C    C    0.86388   0.22859   0.33050
C    C    0.74253   0.44433   0.15374
C    C    0.68405   0.58431   0.10558
C    C    0.70788   0.62588   0.15531
C    C    0.69522   0.28522   0.24013
C    C    0.15651   0.10992   0.45071
C    C    0.72657   0.86401   0.67443
C    C    0.82658   0.92054   0.44785
C    C    0.87016   0.80255   0.65773
C    C    0.68631   0.85041   0.61512
C    C    0.67395   0.04558   0.43543
C    C    0.78293   0.05934   0.66535
C    C    0.49807   0.33408   0.97065
C    C    0.49589   0.26047   0.82506
C    C    0.58658   0.32517   0.96689
C    C    0.81642   0.00357   0.39410
C    C    0.72484   0.83036   0.22227
C    C    0.19339   0.10560   0.38058
C    C    0.72366   0.41134   0.85748
C    C    0.65950   0.49804   0.98815
C    C    0.20002   0.24411   0.00208
C    C    0.79347   0.35998   0.89596
C    C    0.81433   0.57617   0.05374
C    C    0.67372   0.63031   0.94981
C    C    0.04293   0.28283   0.66148
C    C    0.13545   0.25133   0.68295
C    C    0.69998   0.07954   0.62619
C    C    0.59251   0.32772   0.07170
C    C    0.05171   0.23288   0.65539
C    C    0.18838   0.35210   0.14853
C    C    0.71366   0.16061   0.80331
C    C    0.60572   0.18889   0.95768
C    C    0.53990   0.32388   0.91785
C    C    0.41553   0.30990   0.08359
C    C    0.75780   0.39764   0.17236
C    C    0.88797   0.77799   0.35257
C    C    0.80228   0.16868   0.29257
C    C    0.79059   0.90809   0.37867
C    C    0.25674   0.14462   0.28231
C    C    0.33533   0.21253   0.68783
C    C    0.82524   0.65493   0.81367
C    C    0.77918   0.57584   0.12807
C    C    0.16576   0.52332   0.02823
C    C    0.67495   0.87895   0.52802
C    C    0.75750   0.61883   0.16471
C    C    0.67004   0.58605   1.00644
C    C    0.64065   0.66792   0.96143
C    C    0.79563   0.65692   0.71937
C    C    0.67007   0.85570   0.43244
C    C    0.53858   0.71470   0.88866
C    C    0.72034   0.36132   0.18239
C    C    0.75814   0.94366   0.34153
C    C    0.55330   0.18983   0.11453
C    C    0.64656   0.69344   0.14552
C    C    0.67127   0.54326   0.94492
C    C    0.25871   0.31083   0.42730
C    C    0.33669   0.74407   0.73191
C    C    0.93267   0.67826   0.51198
C    C    0.80405   0.53255   0.90563
C    C    0.78656   0.57826   0.86798
C    C    0.82491   0.05088   0.43124
C    C    0.91508   0.81613   0.60853
C    C    0.92437   0.18253   0.65427
C    C    0.68684   0.70924   0.62759
C    C    0.82085   0.67924   0.13334
C    C    0.18345   0.64755   0.93722
C    C    0.83761   0.04458   0.53423
C    C    0.45369   0.32098   0.92441
C    C    0.68618   0.23380   0.48213
C    C    0.23492   0.35517   0.18954
C    C    0.17518   0.39013   0.07857
C    C    0.81603   0.43924   1.01039
C    C    0.70099   0.53660   0.13213
C    C    0.67153   0.77021   0.34000
C    C    0.66702   0.80227   0.42806
C    C    0.72081   0.81800   0.83274
C    C    0.76430   0.80453   0.19062
C    C    0.83242   0.83569   0.67267
C    C    0.82626   0.62034   0.99214
C    C    0.39262   0.80183   0.87655
C    C    0.26420   0.83764   0.77575
C    C    0.66392   0.45611   0.92950
C    C    0.83611   0.70546   0.95319
C    C    0.81831   0.61836   0.88628
C    C    0.23275   0.21657   0.06060
C    C    0.82843   0.88075   0.61229
C    C    0.78799   0.65697   0.20037
C    C    0.65959   0.77777   0.23160
C    C    0.69466   0.88236   0.35489
C    C    0.67027   0.70026   0.80534
C    C    0.66632   0.77853   0.52491
C    C    0.00975   0.20272   0.63066
C    C    0.82298   0.72943   0.15323
C    C    0.86117   0.73738   0.32040
C    C    0.63054   0.73895   0.18240
C    C    0.80253   0.79433   0.25611
C    C    0.81961   0.39019   0.05255
C    C    0.76516   0.67835   0.29099
C    C    0.48788   0.26299   0.17141
C    C    0.68161   0.73029   0.53154
C    C    0.68082   0.81086   0.06232
C    C    0.84150   0.69985   0.84867
C    C    0.31970   0.97314   0.51314
C    C    0.31690   0.92864   0.45403
C    C    0.81061   0.78112   0.81026
C    C    0.78878   0.77761   0.90391
C    C    0.75203   0.53213   0.14846
C    C    0.72470   0.67725   0.63889
C    C    0.20392   0.63980   0.14113
C    C    0.21305   0.77360   0.09532
C    C    0.79847   0.82071   0.74606
C    C    0.71129   0.66833   0.81098
C    C    0.70584   0.70934   0.44935
C    C    0.30639   0.10875   0.65517
C    C    0.28120   0.88922   0.30579
C    C    0.69179   0.03006   0.60806
C    C    0.74808   0.68176   0.46736
C    C    0.63802   0.80304   0.89541
C    C    0.77912   0.86091   0.34839
C    C    0.33399   0.58610   0.00805
C    C    0.27657   0.67673   0.22791
C    C    0.35021   0.73536   0.20090
C    C    0.66273   0.78024   0.71636
C    C    0.32635   0.59608   0.90300
C    C    0.48733   0.83677   0.10530
C    C    0.16687   0.32209   0.95738
C    C    0.41067   0.32270   0.98350
C    C    0.30051   0.29959   0.24162
C    C    0.81353   0.82557   0.33369
C    C    0.83506   0.96908   0.46338
C    C    0.74590   0.66663   0.73183
C    C    0.80856   0.97336   0.63253
C    C    0.32480   0.87934   0.48913
C    C    0.20500   0.67566   0.46459
C    C    0.07653   0.71252   0.60140
C    C    0.87212   0.69359   0.37531
C    C    0.83252   0.67539   0.43535
C    C    0.76387   0.78745   0.09432
C    C    0.70825   0.54282   0.87182
C    C    0.07003   0.68976   0.50865
C    C    0.99072   0.71540   0.62657
C    C    0.84382   0.67214   0.54399
C    C    0.27086   0.97809   0.34260
C    C    0.19048   0.73472   0.94014
C    C    0.28394   0.64413   0.77702
C    C    0.67026   0.80591   0.81852
C    C    0.27728   0.83140  -0.00935
C    C    0.18500   0.59831   0.09056
C    C    0.91976   0.68875   0.41003
C    C    0.71587   0.69311   0.27230
C    C    0.95505   0.72021   0.36617
C    C    0.81177   0.74819   0.97645
C    C    0.83932   0.99397   0.55703
C    C    0.68903   0.67213   0.18681
C    C    0.83105   0.66694   0.02894
C    C    0.56709   0.68562   0.05689
C    C    0.35477   0.83947   0.05256
C    C    0.25984   0.12268   0.69086
C    C    0.82637   0.75007   0.24610
C    C    0.80508   0.66281   0.61101
C    C    0.19037   0.68767   0.09940
C    C    0.19929   0.00602   0.62376
C    C    0.17463   0.60389  -0.01201
C    C    0.40338   0.75529   0.84773
C    C    0.50509   0.84536   1.00848
C    C    0.03671   0.74476   0.33427
C    C    0.29325   0.93234   0.36205
C    C    0.84209   0.74404   0.78382
C    C    0.46590   0.69329   0.09759
C    C    0.16743   0.02994   0.54941
C    C    0.32031   0.85455   0.31353
C    C    0.24074   0.80650   0.93731
C    C    0.74441   0.80024   0.92216
C    C    0.89307   0.68636   0.57874
C    C    0.33310   0.77256   0.26556
C    C    0.70949   0.62976   0.87700
C    C    0.29349   0.97693   0.60289
C    C    0.35665   0.67960   0.86965
C    C    0.19985   0.65107   0.83789
C    C    0.75886   0.67005   0.56535
C    C    0.67559   0.36370   0.12918
C    C    0.17899   0.92541   0.56681
C    C    0.19907   0.68692   0.67426
C    C    0.61650   0.67676   0.05707
C    C    0.72789   0.80072   0.02206
C    C    0.15906   0.68000   0.51112
C    C    0.42499   0.82599   0.94480
C    C    0.77251   0.00888   0.66331
C    C    0.32257   0.64106   0.85117
C    C    0.16771   0.70588   0.31577
C    C    0.19435   0.73345   0.14885
C    C    0.32318   0.81295   0.61201
C    C    0.36186   0.72451   0.81864
C    C    0.19732   0.01684   0.38124
C    C    0.16195   0.85174   0.40807
C    C    0.80175   0.75695   0.07410
C    C    0.69438   0.72439   0.35134
C    C    0.56717   0.79969   0.14084
C    C    0.31183   0.86354   0.58577
C    C    0.29245   0.71609   0.38899
C    C    0.17640   0.80026   0.69426
C    C    0.27056   0.06649   0.35341
C    C    0.66810   0.73014   0.71629
C    C    0.67717   0.49526   0.08989
C    C    0.27623   0.83176   0.09721
C    C    0.26046   0.93865   0.62844
C    C    0.20966   0.68526   0.36102
C    C    0.44181   0.68770   0.92933
C    C    0.38176   0.67545   0.05351
C    C    0.16664   1.00079   0.46246
C    C    0.32610   0.77813   0.53686
C    C    0.43767   0.82410   0.12189
C    C    0.44886   0.72883   0.86784
C    C    0.28820   0.70306   0.48880
C    C    0.32841   0.79318   0.43756
C    C    0.33103   0.84352   0.41516
C    C    0.39920   0.73936   0.17027
C    C    0.54943   0.71504   0.13484
C    C    0.33123   0.82189   0.24030
C    C    0.24692   0.67700   0.52633
C    C    0.30743   0.51395   0.10285
C    C    0.34407   0.82336   0.87290
C    C    0.39311   0.67421   0.95263
C    C    0.18699   0.73657   0.83372
C    C    0.31440   0.72955   0.56244
C    C    0.19831   0.88471   0.36596
C    C    0.28077   0.59493   0.14950
C    C    0.52980   0.68463   0.97378
C    C    0.68120   0.81180   0.17330
C    C    0.31927   0.61521   0.08961
C    C    0.40440   0.83556   0.04352
C    C    0.48542   0.76582   0.19029
C    C    0.11527   0.68635   0.45459
C    C    0.19343   0.69357   0.78271
C    C    0.50531   0.79741   0.86773
C    C    0.55367   0.83705   0.98256
C    C    0.24240   0.67343   0.63019
C    C    0.12291   0.72794   0.63722
C    C    0.78406   0.67692   0.39359
C    C    0.33338   0.53608   0.02396
C    C    0.31971   0.75852   0.36285
C    C    0.51812   0.80597   0.16221
C    C    0.41692   0.69972   0.11485
C    C    0.23642   0.61835   0.80269
C    C    0.47385   0.82710   0.93083
C    C    0.43577   0.77880   0.17739
C    C    0.19684   0.78227   0.78446
C    C    0.58347   0.75123   0.16468
C    C    0.48057   0.67899   1.00091
C    C    0.28532   0.67281   0.69267
C    C    0.59205   0.78069   0.86988
C    C    0.58792   0.73093   0.87004
C    C    0.78017   0.49172   0.87353
C    C    0.50055   0.72106   0.15376
C    C    0.16815   0.55746   0.94566
C    C    0.25919   0.69235   0.31929
C    C    0.32229   0.69175   0.18255
C    C    0.15997   0.69467   0.61211
C    C    0.22102   0.82316   0.24457
C    C    0.63821   0.81357   0.00608
C    C    0.22021   0.97544   0.34595
C    C    0.78025   0.31597   0.28138
C    C    0.70173   0.45688   0.85755
C    C    0.72291   0.28366   0.72023
C    C    0.50134   0.18274   0.11283
C    C    0.65410   0.26251   0.95022
C    C    0.49704   0.74664   0.85961
C    C    0.20783   0.14477   0.31934
C    C    0.52944   0.15699   0.96441
C    C    0.53344   0.18044   0.86983
C    C    0.58316   0.19426   0.86075
C    C    0.26586   0.17202   0.19833
C    C    0.77282   0.18448   0.92794
C    C    0.53982   0.27070   0.17254
C    C    0.77518   0.40539   0.87126
C    C    0.32988   0.79456   0.70847
C    C    0.19486   0.93284   0.38825
C    C    0.55275   0.81082   0.88913
C    C    0.50241   0.32970   0.07585
C    C    0.16811   0.95050   0.47114
C    C    0.32561   0.83838   0.96412
C    C    0.63314   0.70000   0.87886
C    C    0.24281   0.85918   0.69420
C    C    0.58992   0.82196   0.05147
C    C    0.23403   0.86770   0.29677
C    C    0.18340   0.79198   0.28152
C    C    0.37881   0.24090   0.15957
C    C    0.23349   0.80877   0.83453
C    C    0.19487   0.84654   0.65921
C    C    0.33681   0.21322   0.49818
C    C    0.27268   0.18772   0.80745
C    C    0.46416   0.30439   0.12334
C    C    0.33004   0.35762   0.93270
C    C    0.35793   0.19325   0.87108
C    C    0.40471   0.21376   0.84195
C    C    0.32060   0.26101   0.50184
C    C    0.95745   0.79297   0.64621
C    C    0.13185   0.77671   0.65785
C    C    0.66685   0.80326   0.62094
C    C    0.86870   0.75394   0.69807
C    C    0.02076   0.68698   0.47028
C    C    0.33213   0.06180   0.52023
C    C    0.32887   0.26264   0.68345
C    C    0.58682   0.27019   0.83772
C    C    0.14255   0.85414   0.50482
C    C    0.86067   0.82110   0.37962
C    C    0.74794   0.91015   0.65634
C    C    0.08204   0.31415   0.62935
C    C    0.08707   0.74464   0.33156
C    C    0.93760   0.76879   0.35802
C    C    0.10279   0.79239   0.35402
C    C    0.74884   0.83459   0.75313
C    C    0.74818   0.17623   0.15029
C    C    0.29575   0.36247   0.85380
C    C    0.23626   0.81149   0.14882
C    C    0.25075   0.63539   0.18238
C    C    0.57554   0.23168   0.16186
C    C    0.84385   0.88189   0.51460
C    C    0.32921   0.31665   0.16035
C    C    0.32287   0.83590   0.13570
C    C    0.21243   0.77323  -0.00844
C    C    0.95077   0.74174   0.65932
C    C    0.60671   0.22823   0.79300
C    C    0.22480   0.51820   0.15686
C    C    0.17432   0.26575   0.20997
C    C    0.17335   0.87642   0.58126
C    C    0.31632   0.82505   0.78886
C    C    0.30396   0.46343   0.10050
C    C    0.33776   0.66235   0.10387
C    C    0.61401   0.29086   0.91699
C    C    0.31768   0.46332   0.92485
C    C    0.25372   0.31813   0.25384
C    C    0.46797   0.21670   0.14680
C    C    0.72392   0.17103   0.91526
C    C    0.29459   0.33051   0.77373
C    C    0.00496   0.70995   0.37844
C    C    0.90340   0.72147   0.65242
C    C    0.78308   0.21062   0.10784
C    C    0.19045   0.54268   0.85919
C    C    0.31659   0.71249   0.66104
C    C    0.32907   0.29383   0.76879
C    C    0.18549   0.25729   0.82549
C    C    0.82099   0.24239   0.85404
C    C    0.68261   0.18516   0.74203
C    C    0.16745   0.47386   0.01507
C    C    0.27441   0.89014   0.63450
C    C    0.69244   0.18488   0.99636
C    C    0.78878   0.21737   1.00499
C    C    0.68910   0.12352   0.35764
C    C    0.31321   0.54921   0.86151
C    C    0.75762   0.15493   0.24220
C    C    0.87397   0.84653   0.46344
C    C    0.67876   0.20454   0.28480
C    C    0.01964   0.79398   0.34881
C    C    0.81166   0.23970   0.17300
C    C    0.66593   0.20059   0.17537
C    C    0.17948   0.74417   0.24427
C    C    0.68082   0.11096   0.54770
C    C    0.67379   0.16007   0.55321
C    C    0.32231   0.43579   0.01827
C    C    0.26636   0.43781   0.14978
C    C    0.26138   0.40213   0.84637
C    C    0.32946   0.51194   0.93072
C    C    0.21155   0.38818   0.83754
C    C    0.36645   0.32371   0.92235
C    C    0.27183   0.54343   0.15026
C    C    0.09142   0.80637   0.62690
C    C    0.17772   0.31775   0.35839
C    C    0.03687   0.73611   0.64187
C    C    0.12154   0.70558   0.35786
C    C    0.06046   0.81930   0.38455
C    C    0.97297   0.80545   0.37770
C    C    0.96543   0.83438   0.46357
C    C    0.00768   0.83841   0.52432
C    C    0.05466   0.83954   0.47894
C    C    0.04465   0.78684   0.64676
C    C    0.09716   0.83657   0.54169
C    C    0.14957   0.81046   0.35087
C    C    0.22849   0.20195   0.15936
C    C    0.98190   0.68542   0.54253
C    C    0.91937   0.83577   0.51381
C    C    0.20946   0.23303   0.90286
C    C    0.16533   0.37303   0.98030
C    C    0.18322   0.44147   0.09396
C    C    1.00260   0.81304   0.61846
C    C    0.24997   0.48883   0.82464
C    C    0.27019   0.53634   0.81235
C    C    0.20060   0.49244   0.85232
C    C    0.18661   0.54684   0.11208
C    C    0.17910   0.40827   0.90497
C    C    0.27876   0.44921   0.85881
C    C    0.17678   0.45754   0.91748
C    C    0.18412   0.69050  -0.00600
C    C    0.23082   0.57020   0.81418
C    C    0.82001   0.13831   0.37165

