# CIF file generated by openbabel 2.3.2, see http://openbabel.sf.net
data_FAU_1_nozeolite_relaxed
_symmetry_cell_setting           triclinic
_symmetry_space_group_name_H-M   'P 1'
_symmetry_Int_Tables_number      1
loop_
_symmetry_equiv_pos_site_id
_symmetry_equiv_pos_as_xyz
1 x,y,z
_cell_length_a                   17.7560174443
_cell_length_b                   17.9083204734
_cell_length_c                   18.0747998079
_cell_angle_alpha                60.583915343
_cell_angle_beta                 59.7641039104
_cell_angle_gamma                60.6479027431
loop_
    _atom_site_label
    _atom_site_type_symbol
    _atom_site_fract_x
    _atom_site_fract_y
    _atom_site_fract_z
C    C    0.53598   0.02559   0.33175
C    C    0.38641   0.01402   0.45620
C    C    0.35630   0.36967   0.25727
C    C    0.26727   0.40563   0.31423
C    C    0.23435   0.34938   0.40681
C    C    0.63427   0.27116   0.00432
C    C    0.66128   0.14602   0.21958
C    C    0.38545   0.23346   0.39086
C    C    0.30849   0.11021   0.56575
C    C    0.16370   0.24545   0.59445
C    C    0.26009   0.20647   0.54160
C    C    0.27755   0.04058   0.65998
C    C    0.45568  -0.00087   0.37217
C    C    0.56804   0.16805   0.27233
C    C    0.29410   0.26507   0.44850
C    C    0.11470   0.22355   0.69197
C    C    0.26019   0.94569   0.82509
C    C    0.10672   0.30665   0.53834
C    C    0.98021   0.54280   0.25966
C    C    0.01893   0.29509   0.57320
C    C    0.61242   0.99484   0.25701
C    C    0.69305   0.20847   0.13056
C    C    0.12068   0.92483   0.75121
C    C    0.51974   0.10413   0.34765
C    C    0.11118   0.50908   0.32407
C    C    0.53047   0.29988   0.14438
C    C    0.20872   0.49078   0.27649
C    C    0.62230   0.26845   0.08838
C    C    0.75054   0.95383   0.07704
C    C    0.14788   0.18775   0.76681
C    C    0.30509  -0.00775   0.48853
C    C    0.72674   0.05171   0.23756
C    C    0.30626   0.44674   0.01453
C    C    0.50673   0.25673   0.24005
C    C    0.60325   0.05833   0.04337
C    C    0.81450   0.03000   0.23919
C    C    0.99018   0.04911   0.70866
C    C    0.22287   0.01688   0.28504
C    C    0.25329   0.97714   0.65757
C    C    0.26148   0.03346   0.75172
C    C    0.01727   0.24643   0.72199
C    C    0.87106   0.93664   0.26086
C    C    0.50143   0.98275   0.22505
C    C    0.43754   0.97950   0.31515
C    C    0.37783   0.01300   0.17696
C    C    0.46785   0.00868   0.15583
C    C    0.22239   0.10772   0.78880
C    C    0.55280   0.22147   0.97054
C    C    0.31760  -0.00495   0.26945
C    C    0.51350   0.06037   0.06731
C    C    0.23940   0.98890   0.57784
C    C    0.98487   0.98309   0.25685
C    C    0.91603   0.72762   0.16211
C    C    0.22616   0.14215   0.97988
C    C    0.84936   0.09940   0.21616
C    C    0.94149   0.22180   0.15892
C    C    0.08167   0.97203   0.22807
C    C    0.04794   0.12247   0.50417
C    C    0.03376   0.11112   0.25420
C    C    0.19883   0.02655   0.21432
C    C    0.30657   0.29885  -0.00758
C    C    0.95709   0.91567   0.26664
C    C    0.02492   0.83097   0.26149
C    C    0.23348   0.08676   0.87282
C    C    0.25521   0.99579   0.93516
C    C    0.18625   0.01574   0.43743
C    C    0.37048   0.13161   0.03227
C    C    0.24214   0.05586   0.04308
C    C    0.25232   0.83896   0.98634
C    C    0.03790   0.16519   0.28903
C    C    0.78548   0.20886   0.08670
C    C    0.00315   0.76022   0.27006
C    C    0.85454   0.86893   0.25361
C    C    0.23697   0.88351   0.81818
C    C    0.26033   0.92490   0.91419
C    C    0.08191   0.22582   0.83995
C    C    0.08115   0.42862   0.39145
C    C    0.21765   0.90672   0.09678
C    C    0.19734   0.15761   0.90958
C    C    0.91743   0.77867   0.26558
C    C    0.22233   0.63668   0.13173
C    C    0.46805   0.35122   0.02550
C    C    0.37458   0.40417   0.16166
C    C    0.30465   0.21611  -0.00301
C    C    0.34033   0.05695   0.10540
C    C    0.13895   0.36313   0.44786
C    C   -0.00303   0.45046   0.30455
C    C    0.38867   0.30011  -0.01223
C    C    0.22866   0.22001   0.98696
C    C    0.98466   0.24492   0.86672
C    C    0.16228   0.69558   0.18607
C    C    0.38791   0.36977   0.00590
C    C    0.46838   0.22055   0.98306
C    C    0.92134   0.20513   0.70295
C    C    0.00432   0.17581   0.56142
C    C    0.26537   0.61189  -0.00421
C    C    0.14571   0.90423   0.18663
C    C    0.23022   0.83234   0.07663
C    C    0.24579   0.76996   0.97135
C    C    0.96656   0.14166   0.65506
C    C    0.02207   0.40205   0.38405
C    C    0.22329   0.37281   0.00901
C    C    0.25892   0.04242   0.12405
C    C    0.18232   0.74795   0.89487
C    C    0.11158   0.22351   0.90032
C    C    0.24276   0.98383   0.02610
C    C    0.17654   0.77659   0.15886
C    C    0.24542   0.54138   0.17896
C    C    0.13730   0.52624   0.03504
C    C    0.12826   0.61775   0.99402
C    C    0.20315   0.65644   0.94261
C    C    0.00560   0.26661   0.51979
C    C    0.13960   0.35681   0.03353
C    C    0.45424   0.13557   0.01942
C    C    0.24953   0.67538   0.03429
C    C    0.11712   0.83047   0.21612
C    C    0.05123   0.59867   0.29610
C    C    0.10362   0.03324   0.23611
C    C    0.97663   0.26261   0.66353
C    C    0.22921   0.79977   0.88973
C    C    0.92958   0.83312   0.01178
C    C    0.45879   0.35780   0.10578
C    C    0.04186   0.25747   0.97499
C    C    0.34694  -0.01780   0.33782
C    C    0.92362   0.07367   0.24454
C    C    0.79490   0.07028   0.92495
C    C    0.81085   0.98001   0.98220
C    C    0.07781   0.67916   0.25627
C    C    0.06447   0.36867   0.11533
C    C    0.55454   0.29132  -0.01269
C    C    0.80787   0.22736   0.93146
C    C    0.00407   0.56940   0.16543
C    C    0.95451   0.14027   0.23075
C    C    0.83881   0.18114   0.14141
C    C    0.14812   0.00486   0.59246
C    C    0.95125   0.25384   0.00888
C    C    0.90207   0.22852   0.10423
C    C    0.72117   0.21368   0.95984
C    C    0.00213   0.27423   0.11637
C    C    0.71518   0.14308   0.95498
C    C    0.86816   0.18457   0.79294
C    C    0.92105   0.24778   0.95414
C    C    0.83306   0.23637   0.98964
C    C    0.95585   0.23954   0.81149
C    C    0.01161   0.31305   0.43120
C    C    0.12089   0.04046   0.51606
C    C    0.08741   0.80315   0.89558
C    C    0.20927   0.91753   0.74086
C    C    0.00236   0.30974   0.30274
C    C    0.15653   0.04240   0.36465
C    C    0.96741   0.61482   0.28764
C    C    0.00661   0.39870   0.25764
C    C    0.00841   0.26573   0.38833
C    C    0.22448   0.44910   0.01537
C    C    0.00574   0.26163   0.25813
C    C    0.96164   0.94093   0.86123
C    C    0.85846   0.09541   0.83799
C    C    0.62634   0.13797   0.98243
C    C    0.06281   0.50645   0.11679
C    C    0.05756   0.88782   0.83570
C    C    0.87042   0.22516   0.84491
C    C    0.79999   0.88612   0.14079
C    C    0.04631   0.42349   0.16266
C    C    0.89952   0.91814   0.95104
C    C    0.87960   0.81463   0.10718
C    C    0.01831   0.77396   0.97664
C    C    0.91675   0.70514   0.25021
C    C    0.78219   0.90497   0.21660
C    C    0.93368   0.02764   0.80070
C    C    0.08319   0.99122   0.68218
C    C    0.59286   0.97943   0.20013
C    C    0.41708   0.28825   0.29745
C    C    0.98313   0.66091   0.11703
C    C    0.04108   0.68272   0.02734
C    C    0.38116   0.07881   0.48797
C    C    0.43426   0.13779   0.41350
C    C    0.07498   0.12046   0.35942
C    C    0.28154  -0.01218   0.42482
C    C    0.06115   0.28030   0.02648
C    C    0.14607   0.29335   0.00294
C    C    0.65509   0.99098   0.10499
C    C    0.70633   0.98583   0.23744
C    C    0.01612   0.30523   0.16436
C    C    0.03847   0.16959   0.41912
C    C    0.30264   0.51906   0.03615
C    C    0.31248   0.48614   0.12353

