# CIF file generated by openbabel 2.3.2, see http://openbabel.sf.net
data_IRR_1_nozeolite_relaxed
_symmetry_cell_setting           triclinic
_symmetry_space_group_name_H-M   'P 1'
_symmetry_Int_Tables_number      1
loop_
_symmetry_equiv_pos_site_id
_symmetry_equiv_pos_as_xyz
1 x,y,z
_cell_length_a                   19.5913440954
_cell_length_b                   19.808220561
_cell_length_c                   14.2608515423
_cell_angle_alpha                88.4150002837
_cell_angle_beta                 90.9577290925
_cell_angle_gamma                121.61936452
loop_
    _atom_site_label
    _atom_site_type_symbol
    _atom_site_fract_x
    _atom_site_fract_y
    _atom_site_fract_z
C    C    0.69127   0.71158   0.72198
C    C    0.71476   0.93885   0.54928
C    C    0.71689   0.90280   0.46423
C    C    0.80271   0.69034   0.67348
C    C    0.78919   0.13501   0.15774
C    C    0.91958   0.21844   0.23772
C    C    0.00439   0.17144   0.57479
C    C    0.71894   0.12567   0.10848
C    C    0.71543   0.82995   0.46769
C    C    0.85193   0.69751   0.59618
C    C    0.93729   0.16960   0.39660
C    C    0.72314   0.89868   0.29355
C    C    0.63655   0.57167   0.93817
C    C    0.73328   0.80103   0.38799
C    C    0.73980   0.94576   0.37712
C    C    0.74247   0.70986   0.65408
C    C    0.68120   0.88890   0.63348
C    C    0.77870   0.65925   0.85168
C    C    0.77429   0.72796   0.48744
C    C    0.93300   0.71918   0.61325
C    C    0.80870   0.06361   0.46913
C    C    0.71088   0.79455   0.55532
C    C    0.74424   0.05231   0.71894
C    C    0.76562   0.02255   0.55218
C    C    0.87004   0.70088   0.42004
C    C    0.05289   0.78231   0.71647
C    C    0.98317   0.73704   0.53402
C    C    0.77296   0.06877   0.21791
C    C    0.68534   0.81853   0.63372
C    C    0.89802   0.51561   0.03761
C    C    0.92330   0.14350   0.56631
C    C    0.79271   0.06433   0.64088
C    C    0.05112   0.19458   0.49374
C    C    0.66138   0.98705   0.73118
C    C    0.74025   0.74248   0.56533
C    C    0.82749   0.70142   0.50074
C    C    0.72406   0.82783   0.29908
C    C    0.66390   0.65972   0.80026
C    C    0.76397   0.75056   0.39615
C    C    0.47559   0.54359   0.94808
C    C    0.82946   0.68546   0.76886
C    C    0.65233   0.90864   0.71475
C    C    0.69834   0.99182   0.20457
C    C    0.99713   0.73281   0.36559
C    C    0.78031   0.10609   0.79445
C    C    0.88858   0.13065   0.47620
C    C    0.82137   0.08338   0.29845
C    C    0.65311   0.62214   0.10828
C    C    0.63216   0.99535   0.18200
C    C    0.78625   0.02902   0.37925
C    C    0.07300   0.29627   0.26083
C    C    0.99863   0.29302   0.23694
C    C    0.02166   0.20677   0.40653
C    C    0.96863   0.29037   0.86292
C    C    0.64448   0.07198   0.83994
C    C    0.23197   0.20849   0.77985
C    C    0.11553   0.18218   0.67131
C    C    0.62135   0.86817   0.06120
C    C    0.84581   0.20605   0.95097
C    C    0.64465   0.07116   0.15248
C    C    0.69653   0.91646   0.21070
C    C    0.25191   0.15303   0.74471
C    C    0.18928   0.89653   0.45418
C    C    0.07969   0.78373   0.38011
C    C    0.91153   0.71072   0.78495
C    C    0.84754   0.70470   0.32197
C    C    0.72867   0.11094   0.85923
C    C    0.88195   0.40408   0.96192
C    C    0.78764   0.72715   0.31440
C    C    0.65194   0.78692   0.96824
C    C    0.10324   0.81836   0.63426
C    C    0.28020   0.00897   0.33330
C    C    0.39364   0.11856   0.10818
C    C    0.17343   0.35806   0.92698
C    C    0.94123   0.71240   0.88006
C    C    0.06779   0.78907   0.54529
C    C    0.30386   0.13744   0.80302
C    C    0.87604   0.12051   0.64823
C    C    0.60387   0.86677   0.88724
C    C    0.66853   0.86130   0.13615
C    C    0.74100   0.72534   0.23392
C    C    0.62752   0.84243   0.97174
C    C    0.63208   0.85809   0.79579
C    C    0.67028   0.77158   0.71535
C    C    0.68570   0.68749   0.02825
C    C    0.35257   0.18987   0.87714
C    C    0.31980   0.14685   0.22053
C    C    0.02514   0.74770   0.88595
C    C    0.88946   0.69335   0.96284
C    C    0.24160   0.05286   0.63616
C    C    0.18080   0.89268   0.63170
C    C    0.71508   0.78116   0.22065
C    C    0.68846   0.79942   0.13325
C    C    0.57803   0.07709   0.13469
C    C    0.31552   0.91136   0.17545
C    C    0.96657   0.73635   0.70561
C    C    0.20766   0.93879   0.54219
C    C    0.21355   0.28287   0.27206
C    C    0.09591   0.55192   0.87501
C    C    0.11348   0.57485   0.97226
C    C    0.63112   0.68078   0.87065
C    C    0.67919   0.76113   0.04611
C    C    0.22615   0.93333   0.71379
C    C    0.11632   0.82020   0.46256
C    C    0.94740   0.71579   0.44157
C    C    0.63941   0.75299   0.87790
C    C    0.96637   0.66139   0.07523
C    C    0.81272   0.68346   0.94445
C    C    0.16312   0.20536   0.41700
C    C    0.14491   0.35069   0.20814
C    C    0.64466   0.55371   0.04494
C    C    0.19810   0.14040   0.57729
C    C    0.76917   0.68905   0.01885
C    C    0.27423   0.40185   0.05922
C    C    0.91635   0.15758   0.73305
C    C    0.11733   0.80738   0.29368
C    C    0.64536   0.79451   0.79448
C    C    0.59893   0.09576   0.89308
C    C    0.97748   0.72506   0.26712
C    C    0.30764   0.06902   0.78570
C    C    0.12222   0.19311   0.50082
C    C    0.23341   0.02052   0.54519
C    C    0.21707   0.12730   0.48464
C    C    0.89689   0.70359   0.24075
C    C    0.01658   0.50528   0.12893
C    C    0.04522   0.30221   0.84643
C    C    0.14797   0.17215   0.58516
C    C    0.33046   0.03083   0.25186
C    C    0.76253   0.15387   0.94244
C    C    0.08270   0.49431   0.11903
C    C    0.72605   0.66642   0.16934
C    C    0.08032   0.24873   0.33312
C    C    0.22906   0.92481   0.36352
C    C    0.79391   0.68505   0.11336
C    C    0.08153   0.79027   0.81053
C    C    0.21037   0.84019   0.02391
C    C    0.17217   0.43303   0.05798
C    C    0.05806   0.24264   0.80774
C    C    0.39432   0.16479   0.94099
C    C    0.48783   0.35392   0.97591
C    C    0.16144   0.83275   0.84825
C    C    0.25931   0.01596   0.71280
C    C    0.30990   0.91859   0.83719
C    C    0.06000   0.76516   0.22280
C    C    0.33275   0.88723   0.92086
C    C    0.22949   0.11605   0.65509
C    C    0.23096   0.87001   0.19424
C    C    0.15124   0.24600   0.34007
C    C    0.86805   0.69285   0.13989
C    C    0.23934   0.07045   0.46452
C    C    0.87292   0.27615   0.01117
C    C    0.42281   0.33751   0.90874
C    C    0.36890   0.06137   0.82845
C    C    0.34938   0.09905   0.19440
C    C    0.86577   0.15625   0.80475
C    C    0.89746   0.34297   0.94724
C    C    0.07136   0.76338   0.96956
C    C    0.19389   0.30830   0.87893
C    C    0.21080   0.17267   0.40957
C    C    0.07920   0.42734   0.16549
C    C    0.38600   0.35592   0.17815
C    C    0.33947   0.43996   0.99153
C    C    0.26401   0.24954   0.26436
C    C    0.04068   0.17716   0.66406
C    C    0.88729   0.43966   0.05455
C    C    0.04499   0.73292   0.05886
C    C    0.20313   0.39085   0.01390
C    C    0.40725   0.51400   0.00945
C    C    0.09394   0.77524   0.13430
C    C    0.08256   0.47614   0.85240
C    C    0.13056   0.52881   0.03508
C    C    0.28422   0.39093   0.15240
C    C    0.27144   0.32025   0.88558
C    C    0.32842   0.27471   0.19987
C    C    0.34593   0.21831   0.16977
C    C    0.43308   0.49409   0.16470
C    C    0.13624   0.25179   0.81532
C    C    0.39464   0.23820   0.08681
C    C    0.51734   0.61110   0.08653
C    C    0.45821   0.01016   0.82090
C    C    0.55362   0.92935   0.15034
C    C    0.40884   0.89585   0.91721
C    C    0.46014   0.37405   0.13657
C    C    0.16040   0.21016   0.75614
C    C    0.56265   0.88911   0.07186
C    C    0.26500   0.06869   0.37051
C    C    0.50136   0.01657   0.17055
C    C    0.99713   0.42841   0.82969
C    C    0.41996   0.89633   0.08863
C    C    0.39534   0.17516   0.04012
C    C    0.00235   0.19000   0.74031
C    C    0.00615   0.58874   0.92049
C    C    0.36836   0.41659   0.18072
C    C    0.92200   0.53475   0.93892
C    C    0.89617   0.21208   0.87870
C    C    0.19786   0.86887   0.28421
C    C    0.23345   0.89231   0.80090
C    C    0.21407   0.34266   0.21208
C    C    0.45125   0.31786   0.06834
C    C    0.52903   0.45180   0.13847
C    C    0.15494   0.81648   0.94915
C    C    0.55386   0.43027   0.97635
C    C    0.58903   0.47513   0.06496
C    C    0.25033   0.18386   0.32424
C    C    0.17869   0.82703   0.11888
C    C    0.29464   0.87013   0.01126
C    C    0.44883   0.09411   0.10226
C    C    0.27895   0.13277   0.30642
C    C    0.41532   0.11163   0.90139
C    C    0.53940   0.60889   0.99159
C    C    0.51637   0.51272   0.17005
C    C    1.00304   0.36086   0.19545
C    C    0.34394   0.88816   0.09406
C    C    0.44578   0.88686   0.99959
C    C    0.48690   0.93706   0.15584
C    C    0.44246   0.03588   0.16881
C    C    0.48696   0.48529   0.90251
C    C    0.63223   0.12864   0.98313
C    C    0.15341   0.47783  -0.00388
C    C    0.62045   0.63803   0.95760
C    C    0.11327   0.37047   0.88639
C    C    0.14105   0.41086   0.15053
C    C    0.95151   0.35185   0.87437
C    C    0.43430   0.55394   0.10018
C    C    0.12202   0.44475   0.90517
C    C    0.89476   0.15741   0.30783
C    C    0.86358   0.20926   0.16605
C    C    0.48451   0.11024   0.93273
C    C    0.33981   0.39161   0.91987
C    C    0.35531   0.26299   0.88138
C    C    0.96607   0.47922   0.82712
C    C    0.90281   0.46310   0.89095
C    C    0.41768   0.40650   0.89647
C    C    0.28570   0.26303   0.84619
C    C    0.36337   0.98652   0.21109
C    C    0.93768   0.42974   0.12643
C    C    0.93376   0.35817   0.15072
C    C    0.02389   0.57659   0.08926
C    C    0.88196   0.28006   0.10780
C    C    0.56301   0.49352   0.91257
C    C    0.03037   0.55997   0.84476
C    C    0.57670   0.11894   0.05325
C    C    0.38126   0.99643   0.81052
C    C    0.50729   0.11856   0.02898
C    C    0.51737   0.88560   0.99074
C    C    0.70839   0.14493   0.01417
C    C    0.90736   0.68448   0.05970
C    C    0.54896   0.89087   0.89899
C    C    0.69460   0.61627   0.85197
C    C    0.46593   0.94071   0.84077
C    C    0.51916   0.07896   0.87254
C    C    0.53293   0.93617   0.82899
C    C    0.61072   0.99970   0.78619
C    C    0.56921   0.59336   0.14076
C    C    0.95504   0.58769   0.08875
C    C    0.06224   0.60123   0.00051

