# CIF file generated by openbabel 2.3.2, see http://openbabel.sf.net
data_IWS_1_nozeolite_relaxed
_symmetry_cell_setting           triclinic
_symmetry_space_group_name_H-M   'P 1'
_symmetry_Int_Tables_number      1
loop_
_symmetry_equiv_pos_site_id
_symmetry_equiv_pos_as_xyz
1 x,y,z
_cell_length_a                   27.0569769907
_cell_length_b                   26.7970686177
_cell_length_c                   13.1999135705
_cell_angle_alpha                88.3806334025
_cell_angle_beta                 90.0788747171
_cell_angle_gamma                87.7623023631
loop_
    _atom_site_label
    _atom_site_type_symbol
    _atom_site_fract_x
    _atom_site_fract_y
    _atom_site_fract_z
C    C    0.18276   0.35363   0.83125
C    C    0.28005   0.57055   0.13400
C    C    0.38253   0.20826   0.87310
C    C    0.08062   0.24290   0.37243
C    C    0.81366   0.29684   0.60419
C    C    0.77071   0.28059   0.65422
C    C    0.77403   0.24214   0.74511
C    C    0.30306   0.23877   0.72303
C    C    0.22311   0.64882   0.22518
C    C    0.44032   0.29171   0.03565
C    C    0.30919   0.44109   0.95148
C    C    0.28648   0.19515   0.07613
C    C    0.20600   0.24370   0.05684
C    C    0.35717   0.33125   0.04813
C    C    0.19894   0.25559   0.16099
C    C    0.15998   0.31226   0.60152
C    C    0.29514   0.49122   0.91348
C    C    0.24252   0.49277   0.89033
C    C    0.25007   0.40993   0.83226
C    C    0.19983   0.34361   0.10949
C    C    0.37236   0.26043   0.82977
C    C    0.19327   0.69652   0.23789
C    C    0.28175   0.19288   0.18469
C    C    0.24261   0.20674   0.01686
C    C    0.52412   0.18410   0.03812
C    C    0.29761   0.40230   0.87896
C    C    0.32814   0.27425   0.78115
C    C    0.37806   0.25282   0.13909
C    C    0.33632   0.19194   0.92217
C    C    0.32053   0.35457   0.87085
C    C    0.12796   0.30517   0.51762
C    C    0.30505   0.32311   0.79183
C    C    0.03426   0.30035   0.48193
C    C    0.25972   0.33425   0.73918
C    C    0.68006   0.33886   0.12570
C    C    0.29177   0.27359   0.37121
C    C    0.18736   0.28015   0.98371
C    C    0.15256   0.28794   0.70758
C    C    0.24897   0.30577   0.65488
C    C    0.23656   0.17812   0.24003
C    C    0.24192   0.58219   0.88609
C    C    0.31318   0.21856   0.24256
C    C    0.22830   0.31152   0.47865
C    C    0.19746   0.31367   0.38921
C    C    0.16735   0.30365   0.80297
C    C    0.71146   0.44920   0.05448
C    C    0.27455   0.30634   0.28724
C    C    0.52857   0.27378   0.02935
C    C    0.21620   0.53800   0.90687
C    C    0.27123   0.27905   0.46574
C    C    0.35834   0.33369   0.93871
C    C    0.03714   0.27714   0.38767
C    C    0.13919   0.16953   0.56971
C    C    0.57294   0.25248   0.08103
C    C    0.30240   0.18297   0.41562
C    C    0.42654   0.19161   0.03497
C    C    0.47584   0.20795   0.07326
C    C    0.47712   0.20877   0.88915
C    C    0.14716   0.30028   0.41172
C    C    0.29544   0.19088   0.52141
C    C    0.72545   0.36012   0.84725
C    C    0.38192   0.20473   0.08253
C    C    0.57484   0.24797   0.87709
C    C    0.30831   0.30739   0.19992
C    C    0.07843   0.28608   0.54366
C    C    0.18115   0.14254   0.60766
C    C    0.30112   0.43436   0.05631
C    C    0.22698   0.37071   0.78469
C    C    0.31447   0.34258   0.11772
C    C    0.61591   0.28378   0.07087
C    C    0.39296   0.29990   0.88805
C    C    0.48069   0.25914   0.07238
C    C    0.52944   0.27253   0.92482
C    C    0.20050   0.30713   0.18729
C    C    0.43999   0.29211   0.92837
C    C    0.17736   0.37040   0.93386
C    C    0.15102   0.23373   0.69721
C    C    0.91022   0.20368   0.57094
C    C    0.90524   0.30230   0.59386
C    C    0.99486   0.20765   0.50601
C    C    0.97275   0.21550   0.40079
C    C    0.12163   0.21254   0.62245
C    C    0.62420   0.30213   0.97081
C    C    0.19767   0.21602   0.24038
C    C    0.95635   0.22808   0.57606
C    C    0.39535   0.29704   0.08655
C    C    0.18408   0.55264   0.99241
C    C    0.18262   0.26624   0.87997
C    C    0.22944   0.38884   0.10801
C    C    0.48057   0.26016   0.88686
C    C    0.33464   0.19382   0.03063
C    C    0.22958   0.67247   0.90392
C    C    0.20611   0.43379   0.06115
C    C    0.24398   0.76407   0.68033
C    C    0.24992   0.70040   0.43911
C    C    0.61764   0.27723   0.87835
C    C    0.67726   0.36414   0.02824
C    C    0.21091   0.31656   0.57830
C    C    0.07917   0.19721   0.43643
C    C    0.19419   0.09672   0.55657
C    C    0.12833   0.25923   0.35138
C    C    0.22248   0.31478   0.29125
C    C    0.24107   0.14239   0.31784
C    C    0.27718   0.26172   0.63866
C    C    0.84370   0.21113   0.29106
C    C    0.85547   0.32893   0.44715
C    C    0.20491   0.77190   0.12729
C    C    0.20400   0.53016   0.08463
C    C    0.79919   0.36130   0.08779
C    C    0.82450   0.44358   0.02782
C    C    0.24445   0.19872   0.91120
C    C    0.98890   0.26192   0.35753
C    C    0.16329   0.21713   0.32167
C    C    0.79563   0.11141   0.56102
C    C    0.66281   0.25968   0.22996
C    C    0.62623   0.17952   0.94138
C    C    0.74400   0.45083   0.86129
C    C    0.77094   0.24985   0.84962
C    C    0.18812   0.20309   0.75025
C    C    0.30756   0.22394   0.34883
C    C    0.79138   0.22884   0.02016
C    C    0.78721   0.29498   0.90006
C    C    0.71707   0.18895   0.96495
C    C    0.80557   0.38655   0.90285
C    C    0.76058   0.38220   0.14647
C    C    0.82021   0.52149   0.92728
C    C    0.33727   0.26105   0.19665
C    C    0.16144   0.17256   0.38553
C    C    0.21117   0.62508   0.90810
C    C    0.85834   0.31591   0.34139
C    C    0.65833   0.28730   0.81183
C    C    0.26387   0.85581   0.36189
C    C    0.27609   0.64863   0.22776
C    C    0.72507   0.28097   0.59446
C    C    0.68350   0.25437   0.63317
C    C    0.57197   0.20122   0.08195
C    C    0.29189   0.19104   0.75514
C    C    0.67340   0.18751   0.89847
C    C    0.67098   0.24823   0.73926
C    C    0.17730   0.60692   0.98605
C    C    0.82288   0.47109   0.93007
C    C    0.72547   0.31853   0.27861
C    C    0.66027   0.33596   0.95044
C    C    0.76183   0.21334   0.93772
C    C    0.28883   0.14873   0.59119
C    C    0.29096   0.05007   0.59627
C    C    0.28166   0.24157   0.54278
C    C    0.72138   0.34748   0.18741
C    C    0.79343   0.46700   0.10264
C    C    0.81910   0.39223   0.00757
C    C    0.12252   0.17015   0.46161
C    C    0.84898   0.16576   0.45602
C    C    0.98529   0.31131   0.52004
C    C    0.04406   0.20581   0.52121
C    C    0.30304   0.61598   0.15848
C    C    0.69138   0.28105   0.31285
C    C    0.66184   0.18415   0.11545
C    C    0.52589   0.18300   0.93350
C    C    0.19779   0.96115   0.63557
C    C    0.26295   0.16031   0.68774
C    C    0.19908   0.70875   0.96164
C    C    0.78385   0.19161   0.70093
C    C    0.21064   0.16229   0.69049
C    C    0.20381   0.21972   0.84623
C    C    0.42725   0.19316   0.92230
C    C    0.72614   0.28977   0.48611
C    C    0.20050   0.99855   0.47093
C    C    0.29760   0.10025   0.55369
C    C    0.28189   0.38677   0.10138
C    C    0.86355   0.27598   0.62914
C    C    0.77626   0.34597   0.86795
C    C    0.71215   0.49591   0.00353
C    C    0.80435   0.28008   0.00016
C    C    0.25023   0.03004   0.65692
C    C    0.18515   0.91296   0.60114
C    C    0.67666   0.21674   0.45835
C    C    0.66269   0.20739   0.21840
C    C    0.26880   0.80570   0.65140
C    C    0.29172   0.18701   0.86672
C    C    0.95547   0.28056   0.59147
C    C    0.28349   0.94111   0.62445
C    C    0.76769   0.31349   0.44297
C    C    0.94738   0.32712   0.44783
C    C    0.90037   0.33056   0.49980
C    C    0.19893   0.09213   0.45155
C    C    0.90216   0.28491   0.31590
C    C    0.07721   0.23741   0.58374
C    C    0.28824   0.13505   0.37739
C    C    0.17514   0.63724   0.07180
C    C    0.31147   0.63009   0.93292
C    C    0.27475   0.04587   0.43178
C    C    0.30833   0.53436   0.96954
C    C    0.81809   0.28531   0.18596
C    C    0.18352   0.00511   0.57161
C    C    1.00744   0.77793   0.40096
C    C    0.74100   0.16608   0.25595
C    C    0.68295   0.32895   0.85332
C    C    0.78488   0.52008   0.09165
C    C    0.19904   0.69545   0.42702
C    C    0.73640   0.53571   0.05554
C    C    0.71375   0.40980   0.88951
C    C    0.67109   0.21450   0.56718
C    C    0.67740   0.19906   0.78518
C    C    0.65037   0.29526   0.14579
C    C    0.09305   0.74505   0.65181
C    C    0.92298   0.20408   0.38767
C    C    0.69446   0.26396   0.41638
C    C    0.34625   0.63760   0.10892
C    C    0.94817   0.29897   0.35518
C    C    0.16465   0.78184   0.71527
C    C    0.18665   0.90684   0.49426
C    C    0.20541   0.04983   0.61202
C    C    0.07196   0.68437   0.53562
C    C    0.29474   0.09537   0.44332
C    C    0.29931   0.01409   0.51249
C    C    0.18099   0.33152   0.01159
C    C    0.18065   0.69070   0.05658
C    C    0.96771   0.69130   0.58162
C    C    0.77015   0.31964   0.33546
C    C    0.21869   0.78938   1.02922
C    C    0.86684   0.22240   0.62525
C    C    0.71107   0.17889   0.07439
C    C    0.82494   0.17282   0.35716
C    C    0.17901   0.86082   0.44536
C    C    0.99033   0.77164   0.63418
C    C    0.07892   0.79394   0.60620
C    C    0.22318   0.04330   0.42610
C    C    0.19883   0.13476   0.38103
C    C    0.28293   0.89010   0.62548
C    C    0.21184   0.77096   0.76464
C    C    0.20684   0.75947   0.94869
C    C    0.28589   0.71300   0.36253
C    C    0.13946   0.82748   0.47637
C    C    0.29544   0.96460   0.52347
C    C    0.24802   0.85542   0.67272
C    C    0.69754   0.16426   0.71668
C    C    0.81600   0.31349   0.28375
C    C    0.21675   0.94786   0.44724
C    C    0.79151   0.20795   0.12077
C    C    0.79561   0.43743   0.86487
C    C    0.81753   0.60025   0.00091
C    C    0.81957   0.23262   0.19988
C    C    0.81100   0.31876   0.50177
C    C    0.29494   0.76566   0.49930
C    C    0.28468   0.67472   0.89434
C    C    0.75897   0.10937   0.63830
C    C    0.75061   0.17936   0.14763
C    C    0.77986   0.14660   0.33042
C    C    0.09830   0.74427   0.42895
C    C    0.69573   0.40956  -0.00874
C    C    0.26286   0.81760   1.01456
C    C    0.29431   0.83138   0.29159
C    C    0.29897   0.80261   0.93755
C    C    0.80547   0.60562   0.89124
C    C    0.80974   0.30837   0.08963
C    C    0.15832   0.82776   0.66007
C    C    0.16551   0.77072   0.33886
C    C    0.62448   0.66388   0.98034
C    C    0.79047   0.55635   0.86173
C    C    0.75076   0.43510   0.12465
C    C    0.89656   0.18354   0.47247
C    C    0.30874   0.75675   0.39620
C    C    0.73043   0.72330   0.65585
C    C    0.69622   0.74501   0.81868
C    C    0.57939   0.71846   0.16449
C    C    0.73902   0.54751   0.86175
C    C    0.76104   0.69155   0.59442
C    C    0.95168   0.70855   0.40172
C    C    0.65809   0.66961   0.89087
C    C    0.30088   0.68934   0.27326
C    C    0.11591   0.70186   0.48768
C    C    0.18206   0.70915   0.61184
C    C    1.00066   0.81193   0.48413
C    C    0.98479   0.68739   0.47776
C    C    0.86638   0.71587   0.34068
C    C    0.73677   0.70442   0.26099
C    C    0.67657   0.12331   0.45160
C    C    0.82485   0.18939   0.62994
C    C    0.62139   0.18025   0.05208
C    C    0.26926   0.82353   0.19671
C    C    0.73949   0.62945   0.07237
C    C    0.69408   0.17733   0.29181
C    C    0.71362   0.08461   0.60609
C    C    0.67538   0.16670   0.61566
C    C    0.21165   0.84617   0.36440
C    C    0.23212   0.76814   0.85515
C    C    0.89086   0.23230   0.31810
C    C    0.82373   0.15363   0.55130
C    C    0.17994   0.71634   0.32681
C    C    0.91044   0.82369   0.43675
C    C    0.70901   0.95293   0.56502
C    C    0.68091   0.12384   0.55892
C    C    0.70131   0.94431   0.38891
C    C    0.68123   0.97504   0.47452
C    C    0.79606   0.07971   0.47118
C    C    0.71224   0.78826   0.86693
C    C    0.60846   0.79964   0.11008
C    C    0.28391   0.88387   0.44478
C    C    0.68740   0.07134   0.41132
C    C    0.75072   0.15030   0.70335
C    C    0.02857   0.80031   0.57827
C    C    0.05684   0.70722   0.62745
C    C    0.24558   0.97509   0.67050
C    C    0.00417   0.71987   0.64071
C    C    0.29972   0.86142   0.53557
C    C    0.57626   0.19681   0.89324
C    C    0.74186   0.86774   0.32876
C    C    0.26284   0.72549   0.52856
C    C    0.19626   0.86524   0.66078
C    C    0.13147   0.78519   0.41163
C    C    0.75332   0.68909   0.48890
C    C    0.89387   0.77869   0.64588
C    C    0.12054   0.82577   0.57834
C    C    0.70873   0.76871   0.60218
C    C    0.69465   0.76247   0.50041
C    C    0.80614   0.71956   0.97172
C    C    0.04773   0.74088   0.40739
C    C    0.88757   0.72586   0.65998
C    C    0.84000   0.70895   0.69213
C    C    0.22321   0.80079   0.20906
C    C    0.70212   0.64049   0.86841
C    C    0.18642   0.72288   0.13959
C    C    0.80559   0.69123   0.06639
C    C    0.70833   0.70173   0.17301
C    C    0.71975   0.90489   0.59230
C    C    0.69996   0.89254   0.38294
C    C    0.76198   0.01604   0.37777
C    C    0.80194   0.67882   0.44172
C    C    0.29578   0.80830   0.55873
C    C    0.87184   0.76837   0.31674
C    C    0.23252   0.72628   0.61365
C    C    0.78480   0.79783   0.24495
C    C    0.96135   0.75787   0.36596
C    C    0.72295   0.58498   0.01872
C    C    0.67870   0.02715   0.48337
C    C    0.14466   0.73776   0.67025
C    C    0.83632   0.67429   0.52226
C    C    0.79057   0.65107   0.84719
C    C    0.78840   0.69729   0.25607
C    C    0.72378   0.49889   0.89636
C    C    0.03336   0.69533   0.45959
C    C    0.77120   0.10245   0.38005
C    C    0.26827   0.93564   0.44709
C    C    0.76147   0.83755   0.67147
C    C    0.84923   0.81425   0.64027
C    C    0.74018   0.66345   0.81014
C    C    0.91652   0.78868   0.35602
C    C    0.68513   0.80314   0.42970
C    C    0.82272   0.72898   0.79102
C    C    0.81412   0.69765   0.87445
C    C    0.86387   0.84564   0.45718
C    C    0.62566   0.70114   0.14649
C    C    0.88685   0.67797   0.50763
C    C    0.81857   0.69372   0.34249
C    C    0.68362   0.85396   0.45910
C    C    0.94918   0.81982   0.51270
C    C    0.16696   0.69534   0.51338
C    C    0.91702   0.69294   0.59312
C    C    0.71563   0.81914   0.62769
C    C    0.84616   0.85509   0.56227
C    C    0.82860   0.80336   0.30589
C    C    0.80272   0.71874   0.15328
C    C    0.81290   0.68454   0.61852
C    C    0.90268   0.69399   0.40920
C    C    0.74220   0.99342   0.58564
C    C    0.73911   0.81994   0.28732
C    C    0.80041   0.77750   0.79069
C    C    0.29135   0.82561   0.10124
C    C    0.79046   0.63851   0.06172
C    C    0.19906   0.80581   0.30215
C    C    0.80524   0.80887   0.70083
C    C    0.82789   0.84503   0.37490
C    C    0.81158   0.89530   0.57764
C    C    0.76754   0.88619   0.63497
C    C    0.72586   0.71178   0.75675
C    C    0.71478   0.71993   0.44405
C    C    0.65421   0.72071   0.85551
C    C    0.78903   0.93018   0.41030
C    C    0.81919   0.54923   0.02425
C    C    0.67876   0.17157   0.40067
C    C    0.70906   0.03800   0.57472
C    C    0.78299   0.77060   0.15166
C    C    0.75377   0.78420   0.06222
C    C    0.94150   0.79431   0.60805
C    C    0.69595   0.86023   0.56262
C    C    0.70420   0.78702   0.33277
C    C    0.70215   0.66331   0.10429
C    C    0.71391   0.59109   0.91544
C    C    0.32822   0.78763   0.31638
C    C    0.28555   0.76516   0.87398
C    C    0.34511   0.70808   0.22883
C    C    0.34342   0.81569   0.08156
C    C    0.31321   0.71851   0.88213
C    C    0.37500   0.79079   0.15601
C    C    0.34795   0.80136   0.97956
C    C    0.29202   0.58313   0.92106
C    C    0.35368   0.63991   0.99983
C    C    0.38591   0.76778   0.93732
C    C    0.35269   0.76121   0.24000
C    C    0.41921   0.69006   0.12459
C    C    0.38772   0.67554   0.96175
C    C    0.47905   0.74274   0.93304
C    C    0.50080   0.80974   0.06828
C    C    0.37118   0.67727   0.15889
C    C    0.53851   0.80499   0.98768
C    C    0.36545   0.71906   0.90914
C    C    0.47986   0.69594   0.98372
C    C    0.43571   0.77613   0.95718
C    C    0.52063   0.78195   0.15717
C    C    0.45100   0.80286   0.04840
C    C    0.42307   0.78060   0.13494
C    C    0.43240   0.68035   1.02402
C    C    0.53314   0.69737   0.13310
C    C    0.44628   0.73170   0.16762
C    C    0.49575   0.73301   0.17083
C    C    0.52706   0.76451   0.92516
C    C    0.59067   0.81120   1.01055
C    C    0.52895   0.68063   0.03299
C    C    0.57162   0.77260   0.16766
C    C    0.64797   0.66579   0.07620
C    C    0.62777   0.79667   0.93658
C    C    0.76652   0.78799   0.87340
C    C    0.71414   0.73355   0.34090
C    C    0.66090   0.78343   0.12311
C    C    0.57294   0.68516   0.96629
C    C    0.56883   0.73077   0.90835
C    C    0.18987   0.42144   0.95831
C    C    0.78008   0.76753   0.97137
C    C    0.61502   0.75312   0.88697
C    C    0.68081   0.80331   0.95114
C    C    0.28058   0.47928   0.10248
C    C    0.22700   0.48028   0.09216
C    C    0.70100   0.79951   0.05146
C    C    0.78829   0.88164   0.36579
C    C    0.66525   0.73480   0.16281
C    C    0.30050   0.52780   0.07526
C    C    0.22728   0.56837   0.14368
C    C    0.21934   0.44637   0.88284
C    C    0.20159   0.61515   0.15945
C    C    0.75102   0.96681   0.36850
C    C    0.80554   0.93889   0.50754
C    C    0.73295   0.06384   0.36436
C    C    0.79540   0.02894   0.46425
C    C    0.78928   0.98899   0.54266

