# CIF file generated by openbabel 2.3.2, see http://openbabel.sf.net
data_SAO_nozeolite_relaxed
_symmetry_cell_setting           triclinic
_symmetry_space_group_name_H-M   'P 1'
_symmetry_Int_Tables_number      1
loop_
_symmetry_equiv_pos_site_id
_symmetry_equiv_pos_as_xyz
1 x,y,z
_cell_length_a                   13.604428875
_cell_length_b                   13.5179487047
_cell_length_c                   21.8797883619
_cell_angle_alpha                91.3767600163
_cell_angle_beta                 89.610132242
_cell_angle_gamma                86.9093113095
loop_
    _atom_site_label
    _atom_site_type_symbol
    _atom_site_fract_x
    _atom_site_fract_y
    _atom_site_fract_z
C    C    0.70725   0.46630   0.76778
C    C    0.88148   0.77520   0.71533
C    C    0.14815   0.41392   0.63123
C    C    0.18055   0.61806   0.74263
C    C    0.02535   0.88880   0.35711
C    C    0.29977   0.11386   0.36563
C    C    0.11964   0.10962   0.37315
C    C    0.65891   0.06270   0.40417
C    C    0.05435   0.79356   0.56003
C    C    0.44945   0.25902   0.26304
C    C    0.04406   0.72293   0.75289
C    C    0.09922   0.86675   0.65651
C    C    0.59346   0.66092   0.85268
C    C    0.29515   0.43664   0.93973
C    C    0.95022   0.52291   0.85668
C    C    0.25569   0.58324   0.88065
C    C    0.38873   0.36260   0.85786
C    C    0.99663   0.15180   0.72334
C    C    0.40879   0.41269   0.80284
C    C    0.89994   0.73434   0.60854
C    C    0.12769   0.69560   0.71528
C    C    0.97792   0.79871   0.73178
C    C    0.12507   0.45821   0.86310
C    C    0.11456   0.25524   0.67565
C    C    0.09675   0.11600   0.60201
C    C    0.07041   0.39413   0.59022
C    C    0.36864   0.55843   0.03385
C    C    0.46752   0.33969   0.90109
C    C    0.92971   0.30106   0.57765
C    C    0.50657   0.42993   0.78628
C    C    0.89941   0.16117   0.70326
C    C    0.21036   0.53444   0.70559
C    C    0.17247   0.33917   0.67623
C    C    0.09034   0.59011   0.62813
C    C    0.90261   0.40496   0.59188
C    C    0.08604   0.21699   0.61412
C    C    0.36974   0.41531   0.10008
C    C    0.94980   0.61322   0.82407
C    C    0.13256   0.60221   0.80154
C    C    0.87508   0.24913   0.67030
C    C    0.86043   0.37326   0.75408
C    C    0.99610   0.56599   0.60500
C    C    0.21779   0.36289   0.73223
C    C    0.73081   0.37255   0.86398
C    C    0.41482   0.66849   0.87767
C    C    0.49441   0.66592   0.83478
C    C    0.33189   0.62807   0.84725
C    C    0.53100   0.70273   0.06464
C    C    0.10616   0.04578   0.65319
C    C    0.33780   0.48273   0.77397
C    C    0.06311   0.23523   0.72996
C    C    0.36128   0.59529   0.97243
C    C    0.63570   0.55040   0.76917
C    C    0.67912   0.39165   0.80873
C    C    0.61218   0.63873   0.91523
C    C    0.53454   0.52853   0.76598
C    C    0.12447   0.95174   0.62627
C    C    0.07786   0.29758   0.78416
C    C    0.87386   0.88372   0.42010
C    C    0.69917   0.57303   0.92819
C    C    0.86199   0.42483   0.65119
C    C    0.36404   0.58459   0.79033
C    C    0.56480   0.34356   0.87914
C    C    0.29198   0.54242   0.93658
C    C    0.83360   0.39742   0.86277
C    C    0.35842   0.39547   0.98509
C    C    0.97916   0.97435   0.70974
C    C    0.68175   0.50504   0.97908
C    C    0.77700   0.56930   0.88739
C    C    0.85515   0.60904   0.68103
C    C    0.02713   0.44196   0.85225
C    C    0.03679   0.64854   0.79828
C    C    0.76938   0.62538   0.82995
C    C    0.03653   0.29560   0.58081
C    C    0.17552   0.33461   0.78843
C    C    0.10976   0.68976   0.64997
C    C    0.09789   0.77513   0.62002
C    C    0.28860   0.38158   0.88061
C    C    0.91030   0.63652   0.62495
C    C    0.53546   0.64706   0.95920
C    C    0.09791   0.05858   0.54524
C    C    0.20204   0.38250   0.84710
C    C    0.86030   0.08379   0.66748
C    C    0.57947   0.37559   0.81796
C    C    0.04128   0.05687   0.70566
C    C    0.87503   0.34331   0.69278
C    C    0.43183   0.65386   0.94109
C    C    0.83538   0.50960   0.68894
C    C    0.87417   0.22345   0.60707
C    C    0.85305   0.64604   0.79767
C    C    0.86555   0.04609   0.55674
C    C    0.88610   0.08316   0.49454
C    C    0.16956   0.55355   0.85462
C    C    0.35962   0.45531   0.04189
C    C    0.93525   0.88111   0.47138
C    C    0.70227   0.93986   0.26303
C    C    0.70683   0.88302   0.37022
C    C    0.72111   0.03804   0.24828
C    C    0.81208   0.08835   0.45003
C    C    0.94465   0.13810   0.39995
C    C    0.89591   0.34876   0.81327
C    C    0.11988   0.95683   0.55970
C    C    0.85561   0.91016   0.63798
C    C    0.98886   0.46586   0.58707
C    C    0.64507   0.90225   0.16492
C    C    0.89885   0.86636   0.53277
C    C    0.85786   0.11758   0.60433
C    C    1.00146   0.34791   0.82212
C    C    0.88247   0.98642   0.68250
C    C    0.76862   0.91659   0.42127
C    C    0.99178   0.03684   0.30614
C    C    0.59888   0.84617   0.11696
C    C    0.80049   0.46514   0.74533
C    C    0.64161   0.55597   0.03336
C    C    0.43096   0.71634   0.07879
C    C    0.86011   0.81086   0.65262
C    C    0.46477   0.60548   0.78320
C    C    0.63973   0.50806   0.09270
C    C    0.51563   0.31969   0.01540
C    C    0.15827   0.51464   0.64961
C    C    0.84031   0.13532   0.39451
C    C    0.59900   0.90271   0.37985
C    C    0.33403   0.13414   0.22973
C    C    0.42654   0.89886   0.10848
C    C    0.61581   0.26483   0.23235
C    C    0.33926   0.87010   0.33690
C    C    0.57812   0.79785   0.24638
C    C    0.50224   0.63548   0.21371
C    C    0.79722   0.08318   0.28906
C    C    0.56819   0.17616   0.33551
C    C    0.85135   0.67930   0.73159
C    C    0.57722   0.71092   0.21324
C    C    0.62675   0.56970   0.14873
C    C    0.08917   0.87332   0.52552
C    C    0.40457   0.99013   0.40775
C    C    0.18920   0.91441   0.40403
C    C    0.37885   0.26247   0.16193
C    C    0.62772   0.40237   0.08636
C    C    0.60092   0.74603   0.10813
C    C    0.38291   0.15319   0.33858
C    C    0.64012   0.00693   0.15136
C    C    0.64518   0.87575   0.22624
C    C    0.95044   0.78170   0.55920
C    C    0.23699   0.89099   0.34425
C    C    0.39306   0.83987   0.28193
C    C    0.65949   0.35796   0.91028
C    C    0.56105   0.01365   0.10630
C    C    0.92217   0.88180   0.36219
C    C    0.47945   0.13775   0.36415
C    C    0.37557   0.77048   0.17847
C    C    0.56147   0.54063   0.19808
C    C    0.49427   0.09698   0.10503
C    C    0.52610   0.91817   0.09341
C    C    0.88874   0.01446   0.29478
C    C    0.48607   0.05065   0.39971
C    C    0.77079   0.13803   0.34205
C    C    0.57022   0.63223   0.02097
C    C    0.38315   0.61980   0.08536
C    C    0.57868   1.00097   0.40286
C    C    0.51247   0.86164   0.35492
C    C    0.31071   0.04172   0.41142
C    C    0.37713   0.19010   0.27845
C    C    0.49694   0.82437   0.29310
C    C    0.35303   0.84991   0.22044
C    C    0.61559   0.22693   0.12909
C    C    0.66273   0.13963   0.36157
C    C    0.40022   0.79760   0.11841
C    C    0.62989   0.67546   0.15482
C    C    0.60532   0.36534   0.02264
C    C    0.37590   0.97813   0.14309
C    C    0.65862   0.40513   0.97129
C    C    0.85936   0.92108   0.31444
C    C    0.33087   0.95254   0.19976
C    C    0.62305   0.33548   0.13503
C    C    0.64264   0.18390   0.18851
C    C    0.39915   0.08005   0.13025
C    C    0.41727   0.89344   0.38107
C    C    0.38398   0.47695   0.15363
C    C    0.54895   0.24157   0.28464
C    C    0.44499   0.33963   0.96577
C    C    0.26497   0.45681   0.73574
C    C    0.36098   0.16109   0.16960
C    C    0.40968   0.66052   0.19101
C    C    0.53754   0.44582   0.21234
C    C    0.60448   0.35539   0.19920
C    C    0.66843   0.08052   0.19589
C    C    0.29287   0.03706   0.23897
C    C    0.43555   0.42098   0.20292
C    C    0.21805   0.03445   0.28282
C    C    0.20345   0.10626   0.33429
C    C    0.53516   0.19281   0.09725
C    C    0.03973   0.88121   0.46657
C    C    0.39550   0.30938   0.10374
C    C    0.41581   0.31921   0.21149
C    C    0.47310   0.27142   0.06765
C    C    0.38075   0.58306   0.14556
C    C    0.66692   0.62773   0.80854
C    C    0.86026   0.94188   0.57304
C    C    0.01673   0.10935   0.35321
C    C    0.75600   0.89962   0.31532
C    C    0.02698   0.87862   0.70364
C    C    0.97115   0.11917   0.46561
C    C    0.85772   0.49285   0.87915
C    C    0.74223   0.01727   0.43550
C    C    0.06518   0.94828   0.30826
C    C    0.22037   1.00354   0.43170
C    C    0.07026   0.09347   0.48340
C    C    0.13908   0.08334   0.43635
C    C    0.08629   0.88809   0.40982
C    C    0.16687   0.94305   0.29942

