# CIF file generated by openbabel 2.3.2, see http://openbabel.sf.net
data_FAU_2_nozeolite_relaxed
_symmetry_cell_setting           triclinic
_symmetry_space_group_name_H-M   'P 1'
_symmetry_Int_Tables_number      1
loop_
_symmetry_equiv_pos_site_id
_symmetry_equiv_pos_as_xyz
1 x,y,z
_cell_length_a                   17.5452055586
_cell_length_b                   17.8512457075
_cell_length_c                   18.0545203183
_cell_angle_alpha                58.8469049933
_cell_angle_beta                 60.6487832891
_cell_angle_gamma                60.4406087584
loop_
    _atom_site_label
    _atom_site_type_symbol
    _atom_site_fract_x
    _atom_site_fract_y
    _atom_site_fract_z
C    C    0.10752   0.44696   0.33336
C    C    0.12040   0.36283   0.40973
C    C    0.03643   0.56301   0.20467
C    C    0.28852   0.33892   0.34812
C    C    0.21072   0.31437   0.42353
C    C    0.23437   0.60072   0.14547
C    C    0.17837   0.48973   0.28815
C    C    0.97839   0.81359   0.23888
C    C    0.33715   0.02405   0.43625
C    C    0.31276   0.15416   0.46399
C    C    0.16652   0.58296   0.22918
C    C    0.34069   0.44774   0.19277
C    C    0.08879   0.24850   0.63836
C    C    0.30162   0.06702   0.49986
C    C    0.05661   0.31337   0.44659
C    C    0.02732   0.25110   0.53756
C    C    0.02870   0.23012   0.39405
C    C    0.11753   0.05517   0.38098
C    C    0.16944   0.01152   0.58415
C    C    0.03394   0.31538   0.37907
C    C    0.11873   0.49142   0.08810
C    C    0.02335   0.21851   0.32540
C    C    0.03531   0.39189   0.29190
C    C    0.00874   0.09966   0.64093
C    C    0.23141   0.22529   0.49433
C    C    0.05262   0.46995   0.27944
C    C    0.41726   0.03854   0.36163
C    C    0.45133   0.10645   0.34510
C    C    0.27142   0.00175   0.43199
C    C    0.52861   0.12514   0.26716
C    C    0.17709   0.06860   0.72985
C    C    0.36531   0.02240   0.26891
C    C    0.44902   0.29044   0.24322
C    C    0.45422   0.37262   0.08324
C    C    0.91382   0.80713   0.21660
C    C    0.06717   0.74481   0.23068
C    C    0.38584   0.17581   0.38371
C    C    0.81741   0.96886   0.20806
C    C    0.01380   0.65073   0.21518
C    C    0.28474   0.00516   0.34533
C    C    0.43748   0.02521   0.28103
C    C    0.36175   0.06283   0.17723
C    C    0.74289   0.04901   0.18378
C    C    0.83565   0.88474   0.19932
C    C    0.67337   0.02984   0.17882
C    C    0.94604   0.73675   0.18072
C    C    0.27144   0.42889   0.28070
C    C    0.88850   0.07146   0.18202
C    C    0.83285   0.14913   0.12618
C    C    0.37912   0.27069   0.32917
C    C    0.20892   0.01457   0.32820
C    C    0.17417   0.11529   0.83728
C    C    0.10539   0.06170   0.46089
C    C    0.80049   0.89920   0.13452
C    C    0.93662   0.77304   0.09184
C    C    0.73162   0.22275   0.99238
C    C    0.03398   0.37560   0.22014
C    C    0.01604   0.29468   0.24148
C    C    0.07673   0.65808   0.23532
C    C    0.78750   0.17205   0.87516
C    C    0.18121   0.01144   0.49964
C    C    0.22780   0.01421   0.24146
C    C    0.88681   0.97949   0.21647
C    C    0.52936   0.21707   0.21805
C    C    0.17657   0.19642   0.58462
C    C    0.19472   0.09890   0.63656
C    C    0.01234   0.25670   0.62138
C    C    0.23452   0.06693   0.98183
C    C    0.95432   0.08303   0.19501
C    C    0.96611   0.90110   0.23591
C    C    0.88220   0.21577   0.04973
C    C    0.00143   0.18990   0.19672
C    C    0.29526   0.05228   0.16511
C    C    0.42358   0.37725   0.17112
C    C    0.14469   0.77875   0.18761
C    C    0.75040   0.13961   0.13976
C    C    0.58119   0.05947   0.21877
C    C    0.86588   0.85805   0.06745
C    C    0.04570   0.14966   0.47311
C    C    0.08121   0.01570   0.66161
C    C    0.03793   0.11093   0.26899
C    C    0.08857   0.41417   0.12673
C    C    0.56514   0.15023   0.04528
C    C    0.05352   0.12550   0.32855
C    C    0.02699   0.27046   0.17055
C    C    0.72357   0.97848   0.11575
C    C    0.50539   0.09320   0.11529
C    C    0.29328   0.24508   0.03459
C    C    0.02290   0.00482   0.23142
C    C    0.04110   0.91640   0.23101
C    C    0.07684   0.02286   0.25558
C    C    0.04694   0.23553   0.90611
C    C    0.21701   0.96700   0.14221
C    C    0.38242   0.21129   0.04423
C    C    0.21076   0.95204   0.86990
C    C    0.02221   0.16818   0.54979
C    C    0.51387   0.04681   0.20374
C    C    0.42052   0.11757   0.10415
C    C    0.20548   0.76550   0.10031
C    C    0.22079   0.69314   0.07887
C    C    0.27778   0.09277   0.07803
C    C    0.96418   0.17431   0.15483
C    C    0.17367   0.98899   0.22502
C    C    0.95125   0.22471   0.06348
C    C    0.03063   0.24382   0.98800
C    C    0.87404   0.91819   0.97321
C    C    0.99289   0.24361   0.79665
C    C    0.94727   0.21694   0.70253
C    C    0.08318   0.22621   0.72713
C    C    0.15047   0.13882   0.76343
C    C    0.14227   0.17906   0.87908
C    C    0.97468   0.24493   0.88334
C    C    0.94318   0.13297   0.71330
C    C    0.68377   0.21178   0.08804
C    C    0.52590   0.29247   0.06632
C    C    0.22253   0.84515   0.02346
C    C    0.92618   0.23148   0.78361
C    C    0.71211   0.18585   0.95250
C    C    0.42170   0.27841   0.02246
C    C    0.09857   0.29387   0.09041
C    C    0.15515   0.23613   0.03503
C    C    0.50930   0.24664   0.03461
C    C    0.58973   0.24085   0.12176
C    C    0.82954   0.08246   0.86925
C    C    0.82077   0.23513   0.93708
C    C    0.88695   0.24102   0.95641
C    C    0.20040   0.90727   0.12919
C    C    0.80478   0.00631   0.95261
C    C    0.72278   0.02865   0.02530
C    C    0.96414   0.90139   0.90674
C    C    0.20766   0.71196   0.99915
C    C    0.23600   0.99691   0.96373
C    C    0.91382   0.06252   0.79895
C    C    0.04089   0.82380   0.93277
C    C    0.84737   0.21794   0.85710
C    C    0.07301   0.96295   0.75472
C    C    0.13300   0.85829   0.19580
C    C    0.65773   0.12344   0.00604
C    C    0.21664   0.02006   0.88491
C    C    0.18379   0.15832   0.94007
C    C    0.22874   0.91259   0.03727
C    C    0.98067   0.97236   0.81828
C    C    0.19007   0.80175   0.93618
C    C    0.32553   0.51019   0.04247
C    C    0.22821   0.04580   0.58075
C    C    0.18450   0.97508   0.79507
C    C    0.02116   0.74728   0.01981
C    C    0.14093   0.91924   0.80233
C    C    0.12957   0.84005   0.88350
C    C    0.21610   0.86340   0.93958
C    C    0.13843   0.35449   0.07597
C    C    0.12224   0.21675  -0.00553
C    C    0.25183   0.03970   0.06400
C    C    0.36716   0.37193   0.01119
C    C    0.24508   0.55328   0.01168
C    C    0.18504   0.64145   0.00166
C    C    0.08549   0.65815   0.03826
C    C    0.30922   0.52544   0.11986
C    C    0.21005   0.48496   0.03026
C    C    0.23611   0.33870   0.03116
C    C    0.27296   0.40100   0.01656
C    C    0.06660   0.57271   0.11442
C    C    0.38873   0.42378   0.03482
C    C    0.25120   0.19170   0.03868

