# CIF file generated by openbabel 2.3.2, see http://openbabel.sf.net
data_BEA_nozeolite_relaxed
_symmetry_cell_setting           triclinic
_symmetry_space_group_name_H-M   'P 1'
_symmetry_Int_Tables_number      1
loop_
_symmetry_equiv_pos_site_id
_symmetry_equiv_pos_as_xyz
1 x,y,z
_cell_length_a                   12.6399858555
_cell_length_b                   12.517707616
_cell_length_c                   26.095730161
_cell_angle_alpha                88.1391868022
_cell_angle_beta                 87.9802098656
_cell_angle_gamma                89.7072364059
loop_
    _atom_site_label
    _atom_site_type_symbol
    _atom_site_fract_x
    _atom_site_fract_y
    _atom_site_fract_z
C    C    0.98002   0.28672   0.94194
C    C    0.82481   0.30335   0.09420
C    C    0.98113   0.19457   0.85646
C    C    0.96576   0.19241   0.91034
C    C    0.98531   0.09094   0.93744
C    C    0.10299   0.10477   0.68649
C    C    0.30933   0.18039   0.06802
C    C    0.25544   0.20776   0.71088
C    C   -0.00714   0.09652   0.83060
C    C    0.97977   0.32470   0.03527
C    C    0.41568   0.15462   0.05608
C    C    0.21383   0.50865   0.68693
C    C    0.95606   0.06548   0.99091
C    C    0.08856   0.34184   0.03035
C    C    0.29706   0.30603   0.78916
C    C    0.49435   0.31651   0.02193
C    C    0.24013   0.38783   0.97652
C    C    0.15244  -0.00502   0.94181
C    C    0.14693   0.01421   0.99674
C    C    0.40624   0.25571   0.86720
C    C    0.42934   0.08701   0.91444
C    C    0.68464   0.96990   0.14320
C    C    0.93649   0.30384   0.08624
C    C    0.29924   0.38995   0.92891
C    C    0.92363   0.30058   0.99016
C    C    0.67495   0.61698   0.24886
C    C    0.54526   0.07810   0.99030
C    C    0.13467   0.11059   0.09243
C    C    0.74993   0.11361   0.97919
C    C    0.65586   0.09437   0.21170
C    C    0.46695   0.29935   0.90732
C    C    0.80934   0.42226   0.16364
C    C    0.04391   0.04480   0.07900
C    C    0.74144   0.22270   0.96597
C    C    0.13249   0.36812   0.98071
C    C    0.77105   0.32594   0.14414
C    C    0.24518   0.03100   0.02286
C    C    0.87251   0.53966   0.35294
C    C    0.69907   0.44957   0.29024
C    C    0.34856   0.02333   0.94250
C    C    0.39613   0.14241   0.86885
C    C    0.04501   0.03229   0.02277
C    C    0.31713   0.31340   0.84416
C    C   -0.02131   0.29870   0.77231
C    C    0.97922   0.12990   0.20082
C    C    0.03738   0.90476   0.83291
C    C    0.29707   0.80898   0.69905
C    C    0.93758   0.22419   0.28135
C    C    0.30309   0.20717   0.76024
C    C    0.69686   0.41082   0.23910
C    C    0.05812   0.01992   0.91241
C    C    0.51923   0.12600   0.93949
C    C    0.25599  -0.00493   0.91691
C    C    0.30530   0.00553   0.75542
C    C    0.23294   0.09627   0.06726
C    C    0.07952   0.34254   0.93503
C    C    0.06627   0.36931   0.84342
C    C    0.15537   0.29590   0.06831
C    C    0.00614   1.00005   0.75160
C    C    0.32849   0.08350   0.83759
C    C    0.97911   0.62055   0.28302
C    C    0.69054   0.03183   0.05447
C    C    0.27713   0.99290   0.86133
C    C    0.65054   0.17171   0.17013
C    C    0.85651   0.20978   0.32218
C    C    0.67774   0.73697   0.31355
C    C    0.26665   0.90243   0.83309
C    C    0.03382   0.00345   0.85826
C    C    0.10362   0.21851   0.10193
C    C   -0.01080   0.19976   0.74641
C    C    0.00955   0.90012   0.77968
C    C    0.06469   0.70382   0.83123
C    C    0.04866   0.40559   0.69621
C    C    0.27681   0.40541   0.76118
C    C    0.21394   0.10724   0.69178
C    C    0.95826   0.73130   0.20538
C    C    0.26568   0.28640   0.05801
C    C    0.77015   0.29528   0.04916
C    C    0.09805   0.30519   0.68379
C    C    0.04834   0.20387   0.69859
C    C    0.69898   0.22986   0.27290
C    C    0.68285   0.12013   0.26320
C    C    0.30879   0.80569   0.75309
C    C    0.17274   0.53256   0.81874
C    C    0.86577   0.44308   0.32842
C    C    0.04503   1.00234   0.69956
C    C    0.31618   0.10136   0.78399
C    C    0.24369   0.71004   0.82989
C    C    0.30415   0.90277   0.78066
C    C    0.05575   0.70705   0.67079
C    C    0.02010   0.69875   0.78101
C    C    0.01957   0.60193   0.75182
C    C    0.78308   0.93156   0.52975
C    C    0.09632   0.65952   0.50553
C    C    0.09352   0.80821   0.84864
C    C    0.15869   0.63583   0.83517
C    C    0.04809   0.60870   0.69836
C    C    0.76129   0.27467   0.31383
C    C    0.03106   0.80418   0.69787
C    C    0.27982   0.70974   0.67210
C    C    0.96636   0.12590   0.25612
C    C    0.92912   0.03472   0.34007
C    C    0.37726   0.87088   0.57408
C    C    0.29082   0.60648   0.75442
C    C    0.10274   0.50761   0.68318
C    C    0.75923   0.76695   0.17932
C    C    0.73331   0.47670   0.19703
C    C    0.96637   0.52474   0.25579
C    C    0.68789   0.87636   0.37812
C    C    0.69762   0.27143   0.17789
C    C    0.91636   0.43480   0.17878
C    C    0.20642   0.81004   0.84807
C    C    0.66760   0.72344   0.25982
C    C    0.72401   0.58392   0.20265
C    C    0.01468   0.49488   0.77478
C    C    0.90571   0.63881   0.18633
C    C    0.70260   0.63159   0.33715
C    C    0.97732   0.03005   0.17418
C    C    0.93589   0.83435   0.18360
C    C   -0.00603   0.40086   0.74534
C    C    0.94161   0.53231   0.20255
C    C    0.69260   0.30227   0.23077
C    C    0.68106   0.92892   0.28803
C    C    0.89698   0.98536   0.43478
C    C    0.27156   0.00703   0.70367
C    C    0.05265   0.90719   0.67376
C    C    0.21074   0.30617   0.69179
C    C   -0.00406   0.29165   0.82631
C    C    0.36150   0.75914   0.58311
C    C    0.61819   0.82630   0.41457
C    C    0.29629   0.66797   0.51015
C    C    0.78208   0.60563   0.37514
C    C   -0.00994   0.09827   0.77646
C    C    0.79181   0.93351   0.13446
C    C    0.99503   0.66859   0.53126
C    C    0.95633   0.33137   0.20175
C    C    0.68503   0.55765   0.29568
C    C    0.22987   0.97321   0.53535
C    C    0.72718   0.96053   0.48474
C    C    0.07995   0.69929   0.61409
C    C    0.27899   0.93199   0.58022
C    C    0.24356   0.96569   0.44205
C    C    0.18338   0.67802   0.59005
C    C    0.79469   0.66120   0.17789
C    C    0.21809   0.91877   0.62566
C    C    0.27078   0.60925   0.70072
C    C    0.40173   0.95633   0.48951
C    C    0.60142   0.71770   0.53477
C    C    0.29788   0.70482   0.78115
C    C    0.79807   0.68168   0.53296
C    C    0.09654   0.67392   0.45028
C    C    0.89393   0.94658   0.52893
C    C    0.89719   0.66000   0.50512
C    C    0.94957   0.97376   0.38277
C    C    0.26823   0.91160   0.67645
C    C    0.98603   0.92696   0.26070
C    C    0.45146   0.91598   0.53527
C    C    0.07663   0.46653   0.81710
C    C    0.99784   0.67489   0.42351
C    C    0.01376   0.80068   0.75274
C    C    0.99121   0.69822   0.36638
C    C    0.97353   0.23466   0.17546
C    C    0.39876   0.73394   0.43520
C    C    0.05643   0.93346   0.57709
C    C    1.00393   0.79967   0.34124
C    C    0.96782   0.02599   0.28592
C    C    0.95664   0.61419   0.33656
C    C    0.24966   0.36627   0.88263
C    C    0.96236   0.02245   0.11517
C    C    0.76425   0.38169   0.32196
C    C    0.06619   0.98184   0.48450
C    C    0.69653   0.03696   0.30101
C    C    0.67474   0.90658   0.23494
C    C    0.85807   0.99388   0.09922
C    C    0.89763   0.65279   0.45051
C    C    0.25871   0.51055   0.78380
C    C    0.13374   0.96409   0.44096
C    C    0.27355   0.71412   0.61612
C    C    0.55206   0.23356   0.92885
C    C    0.83457   0.84694   0.16195
C    C    0.66293   0.98744   0.19714
C    C    0.61743   0.94279   0.48629
C    C    0.68765   0.79961   0.22061
C    C    0.13521   0.35445   0.88683
C    C    0.97679   0.93301   0.20476
C    C    0.93605   0.42693   0.28331
C    C    0.20050   0.81242   0.40285
C    C    0.94739   0.32725   0.25669
C    C    1.00200   0.25068   0.12153
C    C    0.95288   0.97705   0.48245
C    C    0.10844   0.88408   0.40395
C    C    0.73419   0.84691   0.56106
C    C    0.69696   0.67288   0.50949
C    C    0.25261   0.40601   0.70819
C    C    0.20063   0.71287   0.42947
C    C    0.81619   0.28036   0.99884
C    C    0.41099   0.35422  -0.00530
C    C    0.65969   0.29356   0.05187
C    C    0.68685   0.84458   0.32698
C    C    0.69689   0.67023   0.45454
C    C    0.73106   0.97757   0.38884
C    C    0.45451   0.91967   0.44288
C    C    0.99130   0.72387   0.25753
C    C    0.02279   0.88543   0.37614
C    C    0.84443   0.11337   0.34530
C    C    0.60073   0.72095   0.43309
C    C    0.10852   0.91612   0.62342
C    C    0.11671   0.97398   0.53328
C    C    0.74519   0.05315   0.34968
C    C    0.99413   0.81910   0.28683
C    C    0.28794   0.88157   0.40887
C    C    0.29393   0.97953   0.48878
C    C    0.56047   0.91157   0.44231
C    C    0.19183   0.66518   0.53500
C    C    0.39126   0.69412   0.53853
C    C    0.49729   0.70338   0.45909
C    C    0.49077   0.23973   0.06332
C    C    0.80467   0.02712   0.05382
C    C    0.30037   0.68830   0.45524
C    C    0.61979   0.14567   0.12099
C    C    0.65068   0.06794   0.00609
C    C    0.84643   0.07041   0.00594
C    C    0.64339   0.03961   0.10565
C    C    0.40758   0.37025   0.93934
C    C    0.44105   0.07293   0.02063
C    C    0.34752   0.03012   0.99717
C    C    0.38862   0.84385   0.41630
C    C    0.59168   0.23027   0.08372
C    C    0.79352   0.64816   0.42503
C    C    0.60417   0.32400   0.00640
C    C    0.49427   0.69409   0.51375
C    C    0.99417   0.71022   0.58218
C    C    0.63654   0.27393   0.96129
C    C    0.56034   0.90479   0.53261
C    C    0.30770   0.35437   0.01694
C    C    0.95030   0.89825   0.57059
C    C    0.62609   0.81948   0.55488
C    C    0.91153   0.79283   0.58619
C    C    0.81022   0.76376   0.57003
C    C    0.78568   0.98281   0.43762

