# CIF file generated by openbabel 2.3.2, see http://openbabel.sf.net
data_IRY_nozeolite_relaxed
_symmetry_cell_setting           triclinic
_symmetry_space_group_name_H-M   'P 1'
_symmetry_Int_Tables_number      1
loop_
_symmetry_equiv_pos_site_id
_symmetry_equiv_pos_as_xyz
1 x,y,z
_cell_length_a                   16.0280797199
_cell_length_b                   16.1303835273
_cell_length_c                   31.0529265621
_cell_angle_alpha                89.3764303309
_cell_angle_beta                 91.5465487352
_cell_angle_gamma                119.722674359
loop_
    _atom_site_label
    _atom_site_type_symbol
    _atom_site_fract_x
    _atom_site_fract_y
    _atom_site_fract_z
C    C    0.61429   0.76696   0.61481
C    C    0.68972   0.61576   0.73140
C    C    0.44335   0.80870   0.64214
C    C    0.79494   0.05311   0.65583
C    C    0.75153   0.91412   0.55598
C    C    0.85026   0.10362   0.58112
C    C    0.50019   0.55335   0.64411
C    C    0.78803   0.03501   0.61091
C    C    0.93335   0.18543   0.59606
C    C    0.94064   0.81928   0.48124
C    C    0.90196   0.14730   0.50674
C    C    0.70944   0.98866   0.67923
C    C    0.68706   0.67008   0.64719
C    C    0.36549   0.56676   0.61365
C    C    0.83609   0.08256   0.53651
C    C    0.94801   0.20466   0.64083
C    C    0.82912   0.03233   0.44742
C    C    0.10912   0.35115   0.62359
C    C    0.62970   0.90949   0.65598
C    C    0.51666   0.70697   0.61650
C    C   -0.00421   0.21541   0.52349
C    C    0.76758   0.03090   0.75829
C    C    0.35064   0.64694   0.61390
C    C    0.68822   0.73519   0.61517
C    C    0.59599   0.95788   0.73557
C    C    0.29104   0.47208   0.62277
C    C    0.32620   0.41320   0.64234
C    C    0.46660   0.60271   0.61834
C    C    0.51508   0.50563   0.72974
C    C    0.19145   0.45435   0.62528
C    C    0.44081   0.73219   0.61980
C    C    0.27009   0.31189   0.65528
C    C    0.21557   0.12089   0.68326
C    C    0.14162   0.97212   0.61969
C    C    0.85533   0.79360   0.36678
C    C    0.80902   0.82963   0.51494
C    C    0.72952   0.93886   0.59647
C    C    0.02026   0.32752   0.69327
C    C    0.17980   0.53861   0.62687
C    C    0.03444   0.41719   0.70592
C    C    0.68363   0.61463   0.77720
C    C    0.76775   0.83694   0.55283
C    C    0.51885   0.91327   0.70443
C    C    0.53176   0.87695   0.66617
C    C    0.56805   0.94687   0.77936
C    C    0.88398   0.80569   0.51763
C    C    0.01163   0.23562   0.56733
C    C    0.79328   0.96198   0.48146
C    C    0.14791   0.17366   0.55285
C    C    0.13577   0.02242   0.52430
C    C    0.10705   0.28788   0.58922
C    C    0.88122   0.13731   0.67163
C    C    0.35199   0.86872   0.68180
C    C    0.14478   0.79918   0.63862
C    C    0.26064   0.63709   0.62224
C    C    0.88746   0.12696   0.46144
C    C    0.69361  -0.00262   0.72408
C    C    0.16121   0.06572   0.60576
C    C    0.16220   0.24017   0.58767
C    C    0.05101   0.79655   0.62671
C    C    0.01089   0.61732   0.66554
C    C    0.02819   0.29988   0.65096
C    C    0.25999   0.72509   0.63306
C    C    0.16096   0.06506   0.48226
C    C    0.02227   0.86878   0.56165
C    C    0.65602   0.87106   0.62077
C    C    0.14937   0.08659   0.56145
C    C    0.09612   0.54133   0.64173
C    C    0.42414   0.46411   0.66014
C    C    0.78239   0.98559   0.52340
C    C    0.08616   0.62626   0.63674
C    C    0.99654   0.55952   0.73815
C    C    0.91032   0.15676   0.71630
C    C    0.03737   0.37121   0.78036
C    C    0.18836   0.96494   0.65874
C    C    0.84058   0.86735   0.44108
C    C    0.92666   0.12359   0.79391
C    C    0.98319   0.25212   0.72441
C    C    0.07360   0.88446   0.60211
C    C    0.85414   0.77164   0.59607
C    C    0.59676   0.59736   0.66500
C    C    0.60081   0.57117   0.70790
C    C    0.50141   0.83844   0.85249
C    C    0.86910   0.09765   0.75456
C    C    0.07690   0.92078   0.52328
C    C    0.16526   0.72025   0.63403
C    C    0.96050   0.73560   0.64445
C    C    1.00200   0.54561   0.69448
C    C    0.60118   0.89610   0.84788
C    C    0.33053   0.92719   0.76398
C    C    0.35293   0.36235   0.76882
C    C    0.95714   0.20549   0.43446
C    C    0.50637   0.50893   0.77526
C    C    0.04696   0.53892   0.81054
C    C    0.63601   0.95232   0.81045
C    C    0.79777   0.00760   0.83600
C    C    0.35143   0.80476   0.64869
C    C    0.80480   0.88086   0.47864
C    C    0.43536   0.44224   0.70366
C    C    0.01492   0.28089   0.76691
C    C    0.77953   0.66068   0.70963
C    C    0.21104   0.23366   0.62689
C    C    0.77085   0.65907   0.80158
C    C    0.13235   0.19344   0.50871
C    C    0.07284   0.23211   0.49406
C    C    0.76925   0.78052   0.58942
C    C    0.02708   0.43141   0.75065
C    C    0.98738   0.77422   0.39281
C    C    0.04408   0.87327   0.48132
C    C    0.73470  -0.00401   0.80026
C    C    0.82084   0.99169   0.40405
C    C    0.83026   0.90950   0.40332
C    C    0.82175   0.72013   0.33641
C    C    0.21146   0.07298   0.40723
C    C    0.01825   0.50654   0.76769
C    C    0.81958   0.98426   0.91138
C    C    0.36890   0.67864   0.86685
C    C    0.95321   0.10943   0.87392
C    C    0.76308   0.95366   0.87394
C    C    0.16185   0.01324   0.44407
C    C    0.43653   0.86009   0.82941
C    C    0.33703   0.80749   0.84136
C    C    0.21594   0.03283   0.69187
C    C    0.19668   0.14035   0.63866
C    C    0.00700   0.21625   0.79890
C    C    0.05618   0.23961   0.44986
C    C    0.63122   0.78075   0.88459
C    C    0.17596   0.55121   0.85936
C    C    0.96543   0.66912   0.67605
C    C    0.59257   0.57744   0.79845
C    C    0.59264   0.61613   0.83931
C    C    0.28913   0.28931   0.69767
C    C    0.09230   0.49497   0.83440
C    C    0.07393   0.40326   0.82204
C    C    0.41002   0.55117   0.85215
C    C    0.92269   0.80802   0.55997
C    C    0.06499   0.25155   0.83651
C    C    0.15954   0.15212   0.47551
C    C    0.42734   0.90005   0.71405
C    C    0.24796   0.19521   0.71549
C    C    0.66434   0.87636   0.87331
C    C    0.37326   0.45567   0.83362
C    C    0.28831   0.94773   0.72744
C    C    0.40793   0.91269   0.75676
C    C    0.28525   0.90014   0.68815
C    C    0.20739   0.88637   0.65964
C    C    0.89414   0.81999   0.44132
C    C    0.47102   0.91221   0.79065
C    C    0.30397   0.71550   0.86094
C    C    0.10102   0.91211   0.44108
C    C    0.98043   0.63212   0.75224
C    C    0.05606   0.62881   0.82270
C    C    0.34101   0.57946   0.86477
C    C    0.20343   0.65092   0.86096
C    C    0.13740   0.68646   0.84972
C    C    0.78072   0.68535   0.66405
C    C    0.86234   0.67709   0.73654
C    C    0.50965   0.62001   0.85616
C    C    0.27964   0.38130   0.84499
C    C    0.71736   0.37122   0.36542
C    C    0.53478   0.71192   0.87306
C    C    0.86675   0.73348   0.63600
C    C    0.24174   0.51245   0.86391
C    C    0.28008   0.27662   0.78741
C    C    0.35946   0.36465   0.72394
C    C    0.89499   0.07754   0.83467
C    C    0.46739   0.74451   0.86846
C    C    0.08226   0.85743   0.39868
C    C    0.41632   0.44344   0.79477
C    C    0.22060   0.10634   0.78953
C    C    0.76287   0.95059   0.32788
C    C    0.85930   0.65572   0.34419
C    C    0.93804   0.66593   0.72017
C    C    0.81205   0.55903   0.33786
C    C    0.66085   0.27191   0.37071
C    C    0.27166   0.84172   0.83323
C    C    0.50778   0.27243   0.37330
C    C    0.69710   0.74493   0.89095
C    C    0.96025   0.70632   0.36113
C    C    0.94848   0.54378   0.31366
C    C    0.04001   0.49023   0.67778
C    C    0.22077   0.96720   0.34715
C    C    0.91121   0.79280   0.40294
C    C    0.21206   0.41250   0.85787
C    C    0.12727   0.16681   0.88445
C    C    0.85929   0.68184   0.78252
C    C    0.94057   0.69921   0.81127
C    C    0.86319   0.35273   0.36380
C    C    0.50308   0.39991   0.33494
C    C    0.55947   0.36889   0.35872
C    C    1.00011   0.64238   0.29908
C    C    0.13459   0.87981   0.35799
C    C    0.08502   0.76352   0.24454
C    C    0.02507   0.71653   0.32923
C    C    0.86571   0.50620   0.33894
C    C    0.11473   0.35256   0.84341
C    C    0.79517   0.01604   0.36412
C    C    0.78012   0.87222   0.32822
C    C    0.24937   0.28065   0.82971
C    C    0.24684   0.00759   0.73208
C    C    0.99678   0.66010   0.79655
C    C    0.03250   0.80289   0.87726
C    C    0.28510   0.91699   0.80391
C    C    0.17603   0.79129   0.85004
C    C    0.03017   0.66601   0.25659
C    C    0.95158   0.64654   0.16710
C    C    0.10160   0.80938   0.32301
C    C    0.13380   0.83053   0.27899
C    C    0.68366   0.67454   0.86016
C    C    0.96908   0.57602   0.18681
C    C    0.00685   0.58687   0.22858
C    C    0.23290   0.02858   0.77498
C    C    0.19945   0.19109   0.85144
C    C    0.98506   0.48800   0.29337
C    C    0.16563   0.18722   0.43290
C    C    0.25757   0.23010   0.36946
C    C    0.81875   0.41087   0.35666
C    C    0.23166   0.96378   0.80762
C    C    0.24719   0.18929   0.76303
C    C    0.66168   0.41773   0.35470
C    C    0.40753   0.22033   0.37470
C    C    0.19758   0.10722   0.83435
C    C    0.74801   0.80143   0.29547
C    C    0.76946   0.67988   0.84523
C    C    0.00440   0.50690   0.24868
C    C    0.65241   0.12699   0.34424
C    C    0.35422   0.26640   0.36124
C    C    0.02498   0.74665   0.16716
C    C    0.86083   0.61489   0.14764
C    C    0.92145   0.48218   0.16910
C    C    0.70713   0.50820   0.33460
C    C    0.35774   0.11806   0.36702
C    C    0.82454   0.86075   0.36540
C    C    0.66640   0.01626   0.29730
C    C    0.95323   0.41754   0.18220
C    C    0.79089   0.51385   0.14767
C    C    0.09456   0.79802   0.20088
C    C    0.92833   0.76429   0.10905
C    C    0.34376   0.36318   0.30279
C    C    0.12899   0.84382   0.85774
C    C    0.94553   0.73839   0.85392
C    C    0.85673   0.72511   0.86980
C    C    0.75607   0.71657   0.30382
C    C    0.85417   0.76309   0.91000
C    C    0.64991   0.53942   0.31133
C    C    0.05336   0.18242   0.86981
C    C    0.99778   0.41563   0.31192
C    C    0.02044   0.79566   0.12998
C    C    0.84474   0.69110   0.13080
C    C    0.82855   0.44900   0.14971
C    C    0.80205   0.25410   0.37206
C    C    0.59525   0.02170   0.26865
C    C    0.71314   0.95274   0.21266
C    C    0.77202   0.70620   0.14602
C    C    0.71063   0.95884   0.29177
C    C    0.21282   0.15936   0.40292
C    C    0.12025   0.23902   0.41861
C    C    0.69962   0.03366   0.20518
C    C    0.71630   0.82411   0.25576
C    C    0.74657   0.83293   0.17859
C    C    0.49671   0.09505   0.19974
C    C    0.61826   0.03762   0.22415
C    C    0.16627   0.89520   0.19262
C    C    0.91212   0.06848   0.91389
C    C    0.64718   0.15738   0.16971
C    C    0.20902   0.27623   0.35142
C    C    0.26156   0.04973   0.37403
C    C    0.41147   0.09076   0.34099
C    C    0.26843   0.97356   0.30645
C    C    0.16155   0.01947   0.86067
C    C    0.71730   0.77790   0.21643
C    C    0.74873   0.92281   0.17827
C    C    0.70498   0.90672   0.25356
C    C    0.17276   0.94312   0.84440
C    C    0.63693   0.61512   0.24660
C    C    0.36915   0.02957   0.30556
C    C    0.68383   0.62655   0.28679
C    C    0.68949   0.47745   0.15367
C    C    0.78317   0.98066   0.14164
C    C    0.77704   0.79910   0.14326
C    C    0.79213   0.84463   0.95327
C    C    0.77874   0.78354   0.91766
C    C    0.30769   0.08614   0.17655
C    C    0.84546   0.83681   0.06817
C    C    0.95038   0.11236   0.95706
C    C    0.32187   0.03475   0.21148
C    C    0.70269   0.21446   0.36602
C    C    0.69903   0.07713   0.33357
C    C    0.43409   0.03251   0.27146
C    C    0.41633   0.05140   0.22845
C    C    0.00470   0.43588   0.22208
C    C    0.70327   0.63868   0.17587
C    C    0.78852   0.93088   0.95115
C    C    0.55968   0.22304   0.36963
C    C    0.93678   0.80583   0.93695
C    C    0.51574   0.17513   0.17309
C    C    0.37220   0.19012   0.17242
C    C    0.02762   0.84241   0.91681
C    C    0.82822   0.86951   0.02889
C    C    0.24405   0.32647   0.31141
C    C    0.12975   0.27180   0.37397
C    C    0.04516   0.38300   0.24176
C    C    0.54865   0.47628   0.30623
C    C    0.04899   0.38124   0.28716
C    C    0.23735   0.94858   0.22540
C    C    0.21594   0.91762   0.26934
C    C    0.92254   0.81472   0.07356
C    C    0.65332   0.53543   0.17207
C    C    0.92754   0.83006   0.97953
C    C    0.01469   0.88251   0.00577
C    C    0.58053   0.08383   0.19775
C    C    0.60976   0.21697   0.15844
C    C    0.68752   0.67978   0.21249
C    C    0.09557   0.88910   0.11988
C    C    0.22751   0.04044   0.14742
C    C    0.15130   0.03345   0.07453
C    C    0.55943   0.09541   0.32744
C    C    0.80630   0.85621   0.10574
C    C    0.39383   0.41233   0.26432
C    C    0.80040   0.07581   0.14150
C    C    0.80519   0.98856   0.06574
C    C    0.80074   0.94099   0.02774
C    C    0.84591   0.83851   0.98892
C    C    0.07902   0.31268   0.35276
C    C    0.17721   0.34308   0.28568
C    C    0.79825   0.94041   0.10457
C    C    0.95980   0.36968   0.35206
C    C    0.53098   0.33307   0.16691
C    C    0.52649   0.04412   0.28807
C    C    0.80797   0.98675   0.98786
C    C    0.01271   0.87665   0.05033
C    C    0.13131   0.01881   0.90405
C    C    0.24487   0.33965   0.21312
C    C    0.10190   0.34367   0.30889
C    C    0.49397   0.47294   0.26803
C    C    0.16657   0.94003   0.15225
C    C    0.62909   0.37587   0.15436
C    C    0.84120   0.08938   0.06597
C    C    0.87889   0.08746   0.98914
C    C    0.09413   0.34641   0.21706
C    C    0.66842   0.31358   0.14872
C    C    0.55710   0.52758   0.23358
C    C    0.40105   0.34663   0.33392
C    C    0.47084   0.23105   0.17055
C    C    0.49470   0.38893   0.18512
C    C    0.20415   0.08811   0.11223
C    C    0.85536   0.13693   0.10588
C    C    0.90074   0.13537   0.02959
C    C    0.99776   0.19729   0.04314
C    C    0.78082   0.09639   0.36010
C    C    0.99560   0.31251   0.36968
C    C    0.11778   0.05056   0.99346
C    C    0.09140   0.95533   0.97833
C    C    0.20660   0.29010   0.17262
C    C    0.97073   0.28429   0.15267
C    C    0.20589   0.17658   0.11902
C    C    0.91082   0.32389   0.16227
C    C    0.09650   0.93820   0.93437
C    C    0.75623   0.10165   0.17299
C    C    0.94383   0.22342   0.11412
C    C    0.74263   0.18404   0.16409
C    C    0.56355   0.48715   0.19440
C    C    0.51052   0.13542   0.34803
C    C    0.76882   0.34732   0.14777
C    C    0.34350   0.37442   0.22251
C    C    0.04537   0.14823   0.97614
C    C    0.06505   0.31287   0.17274
C    C    0.06509   0.18213   0.01984
C    C    0.12473   0.28526   0.15129
C    C    0.93242   0.23229   0.39708
C    C    0.24552   0.23545   0.15688
C    C    0.39476   0.34441   0.19422
C    C    0.17530   0.34777   0.23906
C    C    0.01853   0.23362   0.08641
C    C    0.80786   0.28244   0.15358
C    C    0.10503   0.25027   0.10790
C    C    0.09334   0.93261   0.07979
C    C    0.11853   0.09635   0.91710
C    C    0.33501   0.25261   0.17490
C    C    0.83469   0.18734   0.37847
C    C    0.12763   0.16383   0.04770
C    C    0.10099   0.10553   0.96086
C    C    0.15135   0.20246   0.09033
C    C    0.13643   0.08241   0.03742

