# CIF file generated by openbabel 2.3.2, see http://openbabel.sf.net
data_POS_nozeolite_relaxed
_symmetry_cell_setting           triclinic
_symmetry_space_group_name_H-M   'P 1'
_symmetry_Int_Tables_number      1
loop_
_symmetry_equiv_pos_site_id
_symmetry_equiv_pos_as_xyz
1 x,y,z
_cell_length_a                   19.682851412
_cell_length_b                   18.9788714557
_cell_length_c                   12.2587651964
_cell_angle_alpha                90.1052879367
_cell_angle_beta                 89.9666764533
_cell_angle_gamma                89.4956311334
loop_
    _atom_site_label
    _atom_site_type_symbol
    _atom_site_fract_x
    _atom_site_fract_y
    _atom_site_fract_z
C    C    0.20860   0.38509   0.08030
C    C    0.14298   0.46708   0.82677
C    C    0.35397   0.25431   0.07639
C    C    0.24685   0.23711   0.84841
C    C    0.07296   0.36307   0.83166
C    C    0.89288   0.33814   0.31726
C    C    0.29645   0.32918   0.95690
C    C    0.97977   0.37765   0.65804
C    C    0.02600   0.62386   0.81131
C    C    0.01905   0.36755   0.91003
C    C    0.80060   0.59778   0.97943
C    C    0.18659   0.42657   0.88955
C    C    0.05967   0.60051   0.00183
C    C    0.28494   0.08455   0.94225
C    C    0.11997   0.42715   0.20234
C    C    0.24213   0.21648   0.15049
C    C    0.95511   0.51783   0.26285
C    C    0.32615   0.10411   0.16380
C    C    0.30832   0.19994   0.84620
C    C    0.14769   0.49995   0.03886
C    C    0.96077   0.68597   0.97592
C    C    0.87541   0.59819   0.20288
C    C    0.87442   0.54156   0.12332
C    C    0.03319   0.50805   0.26883
C    C    0.11224   0.54980   0.96860
C    C    0.11705   0.50492   0.61564
C    C    0.02839   0.35007   0.02862
C    C    0.03720   0.39856   0.59491
C    C    0.25024   0.31355   0.86712
C    C    0.07250   0.42560   0.39997
C    C    0.87961   0.45438   0.41835
C    C    0.89144   0.51303   0.92372
C    C    0.98416   0.63429   0.15684
C    C    0.06460   0.53588   0.16993
C    C    0.11908   0.49251   0.14232
C    C    0.94746   0.60174   0.25371
C    C    0.07968   0.54207   0.35212
C    C    0.03905   0.59483   0.11301
C    C    0.13188   0.73535   0.37249
C    C    0.92339   0.49169   0.15365
C    C    0.90799   0.50256   0.60602
C    C    0.94734   0.44294   0.07455
C    C    0.73650   0.84591   0.11488
C    C    0.08505   0.67758   0.36563
C    C    0.19316   0.35270   0.85119
C    C    0.39244   0.02854   0.35250
C    C    0.03944   0.38422   0.47805
C    C    0.09591   0.42457   0.76181
C    C    0.93147   0.45381   0.95699
C    C    0.42605   0.19301   0.90356
C    C    0.96444   0.41207   0.87368
C    C    0.99094   0.33872   0.43001
C    C    0.19455   0.55999   0.47913
C    C    0.18495   0.60097   0.37988
C    C    0.97784   0.61875   0.61130
C    C    0.65301   0.20008   0.63477
C    C    0.37331   0.09171   0.81948
C    C    0.43358   0.12983   0.84233
C    C    0.11464   0.60850   0.35034
C    C    0.93629   0.56483   0.55618
C    C    0.85383   0.55024   0.00894
C    C    0.61427   0.14314   0.67530
C    C    0.45162   0.18433   0.01294
C    C    0.12864   0.63544   0.63258
C    C    0.95043   0.29845   0.49987
C    C    0.50813   0.10303   0.13707
C    C    0.40953   0.94125   0.03786
C    C    0.23105   0.65519   0.35312
C    C    0.95207   0.42233   0.75660
C    C    0.78080   0.18346   0.37545
C    C    0.94911   0.68554   0.09269
C    C    0.08502   0.44024   0.65527
C    C    0.87447   0.65973   0.84562
C    C    0.12568   0.24978   0.89140
C    C    0.22664   0.70968   0.65497
C    C    0.01691   0.66366   0.42427
C    C    0.45684   0.99115   0.74563
C    C    0.57312   0.06764   0.16253
C    C    0.18635   0.15924   0.97619
C    C    0.60819   0.03021   0.07196
C    C    0.66236   0.21515   0.34668
C    C    0.19049   0.44206   0.00351
C    C    0.34644   0.70551   0.38979
C    C    0.20099   0.64188   0.63255
C    C    0.10320   0.56705   0.66966
C    C    0.13183   0.78893   0.45973
C    C    0.99122   0.38747   0.10974
C    C    0.77010   0.65918   0.14857
C    C    0.39980   0.19976   0.09676
C    C    0.42470   0.97107   0.85030
C    C    0.49836   0.04929   0.75010
C    C    0.78447   0.36789   0.40063
C    C    0.53483   0.85543   0.03484
C    C    0.64206   0.04926   0.34769
C    C    0.50551   0.87882   0.93176
C    C    0.62894   0.79580   0.15518
C    C    0.68636   0.93647   1.00081
C    C    0.61327   0.01092   0.75018
C    C    0.64323   0.74554   0.90447
C    C    1.00385   0.37978   0.23386
C    C    0.50234   0.13395   0.03185
C    C    0.44398   0.92555   0.93516
C    C    0.63460   0.92030   0.17559
C    C    0.73638   0.72447   0.17153
C    C    0.75984   0.70058   0.87608
C    C    0.31165   0.12478   0.85173
C    C    0.73185   0.87773   1.00963
C    C    0.32912   0.02492   0.95796
C    C    0.53658   0.09799   0.94135
C    C    0.64071   0.06749   0.68555
C    C    0.65151   0.97100   0.09161
C    C    0.65068   0.94288   0.90126
C    C    0.59504   0.94530   0.69200
C    C    0.36903   0.23442   0.88504
C    C    0.51447   0.89695   0.12385
C    C    0.71250   0.16176   0.34990
C    C    0.23757   0.59759   0.55621
C    C    0.32400   0.90802   0.58674
C    C    0.28315   0.84704   0.61606
C    C    0.59432   0.08227   0.26687
C    C    0.67059   0.85720   0.17502
C    C    0.35207   0.28490   0.96836
C    C    0.57279   0.93268   0.40200
C    C    0.41709   0.97975   0.64996
C    C    0.91822   0.50824   0.37304
C    C    0.87314   0.45321   0.53732
C    C    0.11587   0.53463   0.85743
C    C    0.35288   0.99059   0.05340
C    C    0.73789   0.82607   0.91730
C    C    0.68650   0.64752   1.00628
C    C    0.10419   0.48973   0.42168
C    C    0.08740   0.68899   0.58866
C    C    0.32397   0.77059   0.34240
C    C    0.42906   0.85083   0.38946
C    C    0.02258   0.66117   0.54215
C    C    0.55138   0.87875   0.84468
C    C    0.30362   0.88591   0.40150
C    C    0.62414   0.98876   0.40987
C    C    0.75982   0.26504   0.62591
C    C    0.89575   0.53409   0.80838
C    C    0.41965   0.93381   0.23528
C    C    0.42022   0.76596   0.54137
C    C    0.49900   0.09006   0.65544
C    C    0.66807   0.04924   0.57840
C    C    0.64030   0.99174   0.52351
C    C    0.53307   0.91462   0.31086
C    C    0.44583   0.92130   0.13174
C    C    0.49238   0.11745   0.38003
C    C    0.56001   0.90460   0.50680
C    C    0.61646   0.00606   0.87225
C    C    0.38271   0.91562   0.65355
C    C    0.56086   0.91355   0.20675
C    C    0.37428  -0.00039   0.46065
C    C    0.52756   0.17911   0.54166
C    C    0.49728   0.86431   0.66115
C    C    0.72696   0.19804   0.62789
C    C    0.48058   0.13482   0.48811
C    C    0.60156   0.94295   0.58078
C    C    0.41318   0.02348   0.55618
C    C    0.37376   0.02094   0.86746
C    C    0.55695   0.13781   0.33299
C    C    0.57481   0.21883   0.48525
C    C    0.75234   0.14622   0.55511
C    C    0.85086   0.39122   0.36113
C    C    0.54508   0.14609   0.64261
C    C    0.90113   0.25049   0.45420
C    C    0.86487   0.33084   0.62361
C    C    0.59256   0.04923   0.96037
C    C    0.44466   0.07503   0.31869
C    C    0.29837   0.65026   0.39817
C    C    0.80269   0.25026   0.33367
C    C    0.96675   0.34888   0.31548
C    C    0.93549   0.56726   0.43982
C    C    0.59263   0.19583   0.37608
C    C    0.32684   0.94244   0.48070
C    C    0.83423   0.39161   0.57785
C    C    0.45973   0.90076   0.32213
C    C    0.49762   0.09358   0.84844
C    C    0.44972   0.10114   0.20311
C    C    0.69182   0.09383   0.39666
C    C    0.62838   0.24645   0.55026
C    C    0.93810   0.32857   0.60715
C    C    0.75393   0.30617   0.34989
C    C    0.80659   0.64377   0.88926
C    C    0.18478   0.20511   0.88210
C    C    0.70749   0.09317   0.51050
C    C    0.14710   0.51046   0.50901
C    C    0.50939   0.85809   0.54631
C    C    0.90279   0.71644   0.91452
C    C    0.87177   0.26854   0.35168
C    C    0.96489   0.62182   0.37461
C    C    0.83177   0.26426   0.61330
C    C    0.80562   0.17002   0.48362
C    C    0.66394   0.72882   0.15403
C    C    0.84147   0.66019   0.17940
C    C    0.67381   0.29497   0.49844
C    C    0.77356   0.37264   0.51570
C    C    0.66786   0.81559   0.87342
C    C    0.68795   0.28348   0.38582
C    C    0.58114   0.80013   0.06209
C    C    0.05869   0.42572   0.27789
C    C    0.62764   0.87450   0.86219
C    C    0.85496   0.21717   0.52860
C    C    0.85186   0.76338   0.96171
C    C    0.13075   0.29800   0.14423
C    C    0.33483   0.67616   0.57043
C    C    0.45665   0.08194   0.56396
C    C    0.32309   0.78871   0.65611
C    C    0.15704   0.37051   0.16423
C    C    0.63864   0.68736   0.06770
C    C    0.69211   0.68811   0.90669
C    C    0.90628   0.60969   0.78388
C    C    0.91712   0.48493   0.72628
C    C    0.38081   0.71237   0.49691
C    C    0.20352   0.72504   0.33558
C    C    0.97270   0.62543   0.72932
C    C    0.77595   0.78357   0.13294
C    C    0.01562   0.63960   0.92821
C    C    0.12271   0.75316   0.56423
C    C    0.35505   0.83724   0.36944
C    C    0.42429   0.85519   0.68352
C    C    0.23892   0.84837   0.39170
C    C    0.18615   0.83967   0.47142
C    C    0.74714   0.62069   0.05596
C    C    0.54299   0.89825   0.73292
C    C    0.18407   0.76829   0.62460
C    C    0.60202   0.74034   0.99803
C    C    0.29826   0.71965   0.64670
C    C    0.25110   0.78121   0.33467
C    C    0.88301   0.71417   0.13378
C    C    0.07964   0.57573   0.78115
C    C    0.37107   0.99013   0.25047
C    C    0.29704   0.62520   0.51211
C    C    0.84288   0.76631   0.07915
C    C    0.72915   0.32124   0.56320
C    C    0.45948   0.81946   0.48351
C    C    0.34051   0.02284   0.16034
C    C    0.39541   0.79390   0.64441
C    C    0.16910   0.23165   0.13516
C    C    0.12841   0.31762   0.84249
C    C    0.07806   0.29707   0.06159
C    C    0.26180   0.33691   0.06179
C    C    0.78544   0.77165   0.90305
C    C    0.13827   0.19076   0.05014
C    C    0.21587   0.83029   0.58215
C    C    0.38956   0.13936   0.16761
C    C    0.09253   0.23736   0.99341
C    C    0.26555   0.14037   0.12506
C    C    0.28637   0.27228   0.12285
C    C    0.24077   0.11940   0.01914

