# CIF file generated by openbabel 2.3.2, see http://openbabel.sf.net
data_EMT_nozeolite_relaxed
_symmetry_cell_setting           triclinic
_symmetry_space_group_name_H-M   'P 1'
_symmetry_Int_Tables_number      1
loop_
_symmetry_equiv_pos_site_id
_symmetry_equiv_pos_as_xyz
1 x,y,z
_cell_length_a                   17.4676086374
_cell_length_b                   17.5933590417
_cell_length_c                   28.1744628319
_cell_angle_alpha                88.1439692662
_cell_angle_beta                 91.3910279891
_cell_angle_gamma                120.73462322
loop_
    _atom_site_label
    _atom_site_type_symbol
    _atom_site_fract_x
    _atom_site_fract_y
    _atom_site_fract_z
C    C    0.65883   0.48345   0.19938
C    C    0.90310   0.52439   0.30165
C    C    0.74610   0.41933   0.17545
C    C    0.50112   0.24272   0.17620
C    C    0.10023   0.40252   0.71865
C    C    0.20356   0.34965   0.69621
C    C    0.33058   0.52663   0.74976
C    C    0.22843   0.50736   0.68614
C    C    0.17535   0.41685   0.68912
C    C    0.19980   0.63154   0.69851
C    C    0.75233   0.25772   0.19254
C    C    0.70163   0.62396   0.23791
C    C    0.58962   0.19093   0.21937
C    C    0.66678   0.33329   0.17618
C    C    0.89808   0.49267   0.20826
C    C    0.54699   0.28673   0.30803
C    C    0.58236   0.32715   0.17508
C    C    0.65644   0.53434   0.23955
C    C    0.74297   0.49799   0.18620
C    C    0.57896   0.40206   0.19056
C    C    0.52425   0.19950   0.29285
C    C    0.88431   0.65045   0.28944
C    C    0.80320   0.61280   0.31225
C    C    0.09768   0.86465   0.31817
C    C    0.63741   0.35326   0.31580
C    C    0.89489   0.56702   0.22062
C    C    0.98901   0.77850   0.23666
C    C    0.67083   0.25486   0.19136
C    C    0.70054   0.32318   0.31846
C    C    0.82678   0.58038   0.19734
C    C    0.61033   0.46837   0.27943
C    C    0.66650   0.44786   0.31076
C    C    0.81774   0.48128   0.32526
C    C    0.82815   0.42311   0.18130
C    C    0.52543   0.39963   0.26723
C    C    0.78941   0.38789   0.32729
C    C    0.83196   0.34364   0.18824
C    C    0.83731   0.66502   0.19582
C    C    0.42590   0.11504   0.22886
C    C    0.75831   0.51448   0.32013
C    C    0.48459   0.31588   0.29510
C    C    0.90365   0.36434   0.22005
C    C    0.85844   0.37305   0.31436
C    C    0.59750   0.19825   0.27001
C    C    0.32636   0.27453   0.27592
C    C    0.39414   0.26211   0.29975
C    C    0.50430   0.17088   0.20065
C    C    0.13607   0.89372   0.27195
C    C    0.91146   0.59154   0.26960
C    C    0.92243   0.45714   0.28899
C    C    0.72112   0.68403   0.27703
C    C    0.35689   0.10798   0.30548
C    C    0.33912   0.08713   0.20727
C    C    0.93160   0.30740   0.23961
C    C    0.75187   0.22221   0.29043
C    C    0.43574   0.13258   0.27770
C    C    0.91401   0.27699   0.28773
C    C    0.49890   0.38121   0.21661
C    C    0.26493   0.13119   0.14697
C    C    0.25504   1.00828   0.21887
C    C    0.23724   0.20982   0.34993
C    C    0.22475   1.00304   0.34941
C    C    0.18938   0.98001   0.18218
C    C    0.96349   0.78214   0.36975
C    C    0.07763   0.85520   0.23168
C    C    0.01855   0.82973   0.40866
C    C    0.22680   0.96913   0.26587
C    C    0.93069   0.44855   0.24015
C    C    0.09810   0.23333   0.30688
C    C    0.68293   0.24259   0.29519
C    C    0.22967   0.25373   0.15174
C    C    0.35187   0.17769   0.32647
C    C    0.10438   0.89972   0.18699
C    C    0.33071   0.28897   0.22581
C    C    0.41855   0.24047   0.17791
C    C    0.02823   0.24021   0.28359
C    C    0.83998   0.28714   0.30473
C    C    0.14300   0.96414   0.43799
C    C    0.27368   0.02257   0.30642
C    C    0.28218   0.16047   0.35672
C    C    0.41564   0.30873   0.20208
C    C    0.14448   0.07439   0.07046
C    C    0.20078   0.03925   0.14363
C    C    0.24017   0.19094   0.12526
C    C    0.14044   1.01109   0.10529
C    C    0.04129   0.87330   0.14923
C    C    0.24817   0.25007   0.30265
C    C    0.25249   0.27622   0.20126
C    C    0.00626   0.89746   0.06699
C    C    0.95116   0.80244   0.15548
C    C    0.11039   0.27482   0.20687
C    C    0.18240   0.27255   0.22975
C    C    0.06520   0.92454   0.10621
C    C    1.00451   0.79296   0.32396
C    C    0.03885   0.26531   0.23425
C    C    0.76657   0.75833   0.18620
C    C    0.13751   0.15705   0.42505
C    C    0.82994   0.04759   0.10545
C    C    0.17760   0.25591   0.28021
C    C    0.16496   0.19642   0.37755
C    C    0.03052   0.16777   0.06893
C    C    0.81048   0.80536   0.14419
C    C    0.73152   0.79614   0.21794
C    C    0.15555   0.25473   0.12943
C    C    0.10044   0.27254   0.15604
C    C    0.12195   0.20088   0.08701
C    C    0.14701   0.91773   0.35749
C    C    0.77620   0.81262   0.34621
C    C    0.17702   0.16108   0.08693
C    C    0.97208   0.27617   0.21017
C    C    0.09245   0.09395   0.98579
C    C    0.16424   0.10322   0.45061
C    C    0.01960   0.16455   0.38695
C    C    0.89551   0.03788   0.02762
C    C    0.19382   0.05347   0.42242
C    C    0.87980   0.80923   0.42383
C    C    0.80587   0.87867   0.38140
C    C    0.01696   0.24958   0.13570
C    C    0.09451   0.20593   0.35554
C    C    0.01270   0.91271   0.97944
C    C    0.91225   0.84272   0.07725
C    C    0.92853   0.74752   0.19639
C    C    0.95696   0.74363   0.28343
C    C    0.87451   0.76598   0.38103
C    C    0.76548   0.08136   0.26971
C    C    0.94579   0.81298   0.89992
C    C    0.09874   0.04300   0.02815
C    C    0.95129   0.25266   0.16195
C    C    0.97807   0.18902   0.09761
C    C    0.79433   0.87406   0.12744
C    C    0.88147   0.14252   0.10682
C    C    0.84383   0.99890   0.07051
C    C    0.86464   0.18679   0.14328
C    C    0.76092   0.18029   0.20859
C    C    0.92657   0.11984   0.37380
C    C    0.78481   0.97997   0.32574
C    C    0.88973   0.14016   0.33354
C    C    0.74023   0.87961   0.20683
C    C    0.98467   0.08666   0.46538
C    C    0.10844   0.89745   0.40359
C    C    0.09572   0.95958   0.47985
C    C    0.86879   0.93254   0.45985
C    C    0.23812   0.07410   0.37936
C    C    0.11894   0.04777   0.49140
C    C    0.82324   0.91084   0.08148
C    C    0.33895   0.15188   0.17616
C    C    0.81442   0.96293   0.37030
C    C    0.76826   0.67654   0.31622
C    C    0.76608   0.91624   0.15956
C    C    0.74176   0.82688   0.30264
C    C    0.74751   0.91052   0.29190
C    C    0.84346   0.86683   0.42455
C    C    0.87480   0.03606   0.39826
C    C    0.83378   0.91896   0.54775
C    C    0.79039   0.14009   0.17548
C    C    0.96662   0.83703   0.44501
C    C    0.94544   0.88932   0.51985
C    C    0.74046   0.93403   0.24374
C    C    0.80186   0.74606   0.34911
C    C    0.72217   0.76515   0.26633
C    C    1.00507   0.89088   0.48406
C    C    0.04193   0.95148   0.02488
C    C    0.89285   0.83722   0.92626
C    C    0.98292   0.11328   0.02615
C    C    0.85802   0.87096   0.05121
C    C    0.07418   0.93044   0.94172
C    C    0.10137   0.97926   0.60030
C    C    0.89969   0.02101   0.44430
C    C    0.90559   0.11097   0.62042
C    C    0.78173   1.00245   0.14833
C    C    0.21748   0.00646   0.85520
C    C    0.23285   0.88447   0.83487
C    C    0.97817   0.13170   0.59015
C    C    0.85662   0.00520   0.56190
C    C    0.80785   0.06963   0.31264
C    C    0.91886   0.14429   0.66616
C    C    0.06567   0.32428   0.74650
C    C    0.01182   0.24175   0.72762
C    C    0.87583   0.10822   0.75077
C    C    0.82175   0.05047   0.78734
C    C    0.88509   0.80417   0.12302
C    C    0.13332   0.08953   0.94444
C    C    0.76705   0.97784   0.64029
C    C    0.04756   0.14166   0.43076
C    C    0.76643   0.05039   0.18423
C    C    0.83162   0.02837   0.60655
C    C    0.85384   0.09400   0.70128
C    C    0.04079   0.86228   0.90677
C    C    0.94510   0.07403   0.55135
C    C    0.09606   0.05543   0.57983
C    C    0.14509   0.01880   0.93080
C    C    0.18560   0.91313   0.86001
C    C    0.06434   0.17176   0.61163
C    C    0.92075   0.86994   0.97125
C    C    0.20781   0.13451   0.87356
C    C    0.25409   0.04905   0.80956
C    C    0.19696   0.05058   0.88723
C    C    0.10391   0.18306   0.88276
C    C    0.24546   0.35332   0.74135
C    C    0.27481   0.00376   0.77607
C    C    0.05091   0.77276   0.84641
C    C    0.96028   0.17870   0.76355
C    C    0.73268   0.98450   0.77250
C    C    0.15490   0.14957   0.90482
C    C    0.16444   0.26954   0.67315
C    C    0.08330   0.26045   0.81783
C    C    0.95019   0.12110   0.84696
C    C    0.75070   0.01921   0.23266
C    C    0.23814   0.07960   0.71177
C    C    0.83402   0.85531   0.89911
C    C    0.25223   0.12633   0.79437
C    C    0.24535   0.14211   0.74502
C    C    0.19650   0.07443   0.66599
C    C    0.24088   0.94419   0.69468
C    C    0.97252   0.09048   0.93498
C    C    0.02686   0.11662   0.98186
C    C    0.00612   0.13346   0.88978
C    C    0.99449   0.18740   0.81055
C    C    0.81347   0.96700   0.85981
C    C    0.85952   0.05106   0.83465
C    C    0.84542   0.94210   0.90111
C    C    0.17033   0.13671   0.65312
C    C    0.15965  -0.00607   0.64016
C    C   -0.00210   0.70950   0.71016
C    C    0.16843   0.92252   0.66087
C    C    0.14313   0.23836   0.84158
C    C    0.23222   0.17298   0.82781
C    C    0.09480   0.84921   0.87518
C    C    0.94541   0.22356   0.30556
C    C    0.07780   0.22865   0.65009
C    C    0.09567   0.83514   0.65676
C    C    0.85095   0.68695   0.76880
C    C    0.22977   0.21148   0.73022
C    C    0.19632   0.42063   0.79354
C    C    0.68411   0.91073   0.80388
C    C    0.77496   0.01686   0.68716
C    C    0.26092   0.01520   0.72672
C    C    0.06783   0.69007   0.78312
C    C    0.76367   0.67875   0.19990
C    C    0.28556   0.89746   0.69808
C    C    0.48323   0.88849   0.78702
C    C    0.87441   0.97530   0.98897
C    C    0.23457   0.27443   0.76357
C    C    0.00394   0.21568   0.67833
C    C    0.79295   0.79951   0.85940
C    C    0.71064   0.97168   0.72275
C    C    0.71049   0.88210   0.63873
C    C    0.59759   0.83350   0.79632
C    C    0.54551   0.88316   0.70974
C    C    0.73978   0.82669   0.61894
C    C    0.07520   0.06565   0.52942
C    C    0.73777   0.89506   0.83632
C    C    0.19459   0.20938   0.68383
C    C    0.93221   0.75527   0.64556
C    C    0.67681   0.74992   0.79744
C    C    0.43923   0.66618   0.79315
C    C    0.60017   0.75407   0.78689
C    C    0.35954   0.58533   0.79087
C    C    0.71526   0.70503   0.77292
C    C    0.10116   0.74263   0.82328
C    C    0.36476   0.73037   0.83337
C    C    0.44330   0.74064   0.81572
C    C    0.95953   0.73496   0.83419
C    C    0.92264   0.70965   0.68999
C    C    0.08562   0.76134   0.68679
C    C    0.35765   0.92232   0.77812
C    C    0.36841   0.92953   0.72730
C    C    0.10587   0.47919   0.73387
C    C    0.25108   0.80840   0.68147
C    C    0.11003   0.33540   0.79066
C    C    0.73047   0.81086   0.83372
C    C    0.90710   0.75977   0.85945
C    C    0.93082   0.69605   0.78888
C    C    0.80697   0.85045   0.58345
C    C    0.77747   0.71836   0.65188
C    C    0.82442   0.74583   0.84059
C    C    0.86831   0.81963   0.59043
C    C    0.24616   0.75215   0.83005
C    C    0.28200   0.57111   0.81690
C    C    0.70048   0.68664   0.72341
C    C    0.66208   0.72197   0.68824
C    C    0.85772   0.75884   0.62744
C    C    0.64154   0.84276   0.67179
C    C    0.14171   0.60029   0.79440
C    C    0.17337   0.54481   0.70227
C    C    0.19579   0.49826   0.80565
C    C    0.39876   0.87692   0.80370
C    C    0.19596   0.78999   0.83230
C    C    0.60323   0.75430   0.69051
C    C    0.28531   0.64635   0.83314
C    C    0.34314   0.79835   0.82941
C    C    0.15720   0.74651   0.69179
C    C    0.62855   0.90024   0.70324
C    C    0.84342   0.68229   0.71839
C    C    0.76903   0.68148   0.69807
C    C    0.03050   0.88772   0.59487
C    C    0.87012   0.89502   0.00330
C    C    0.71817   0.75095   0.64739
C    C    0.31389   0.77865   0.67673
C    C    0.21110   0.65798   0.82538
C    C    0.79256   0.70609   0.79513
C    C    0.28994   0.68866   0.68371
C    C    0.95182   0.86584   0.56734
C    C    0.11204   0.64789   0.76164
C    C    0.40598   0.83993   0.68006
C    C    0.29296   0.93718   0.79727
C    C    0.50517   0.92003   0.73935
C    C    0.13196   0.51727   0.78340
C    C    0.02001   0.82282   0.63011
C    C    0.35220   0.65839   0.69290
C    C    0.46828   0.81183   0.68496
C    C    0.43335   0.91520   0.71042
C    C    0.26643   0.43370   0.76594
C    C    0.21308   0.24066   0.81357
C    C    0.51556   0.69277   0.76216
C    C    0.31651   0.56306   0.70614
C    C    0.87978   0.90968   0.50836
C    C    0.11507   0.12535   0.61152
C    C    0.51369   0.82801   0.80286
C    C   -0.00647   0.68874   0.75996
C    C    0.14685   0.66753   0.71650
C    C    0.44444   0.72241   0.69244
C    C    0.51655   0.71103   0.71455
C    C    0.00627   0.08001   0.51477
C    C    0.75099   0.15355   0.25722
C    C    0.89461   0.00563   0.94032

