# CIF file generated by openbabel 2.3.2, see http://openbabel.sf.net
data_SBT_2_nozeolite_relaxed
_symmetry_cell_setting           triclinic
_symmetry_space_group_name_H-M   'P 1'
_symmetry_Int_Tables_number      1
loop_
_symmetry_equiv_pos_site_id
_symmetry_equiv_pos_as_xyz
1 x,y,z
_cell_length_a                   17.9981815787
_cell_length_b                   17.9330131554
_cell_length_c                   41.7657185905
_cell_angle_alpha                89.3143288272
_cell_angle_beta                 89.8038899531
_cell_angle_gamma                121.255823406
loop_
    _atom_site_label
    _atom_site_type_symbol
    _atom_site_fract_x
    _atom_site_fract_y
    _atom_site_fract_z
C    C    0.05402   0.92262   0.75404
C    C    0.81209   0.91361   0.76039
C    C    0.85551   0.74549   0.80928
C    C    0.96604   0.99468   0.74723
C    C    0.12302   0.08092   0.75328
C    C    0.58777   0.68515   0.79566
C    C    0.11396   0.57747   0.80076
C    C    0.77557   0.74006   0.81188
C    C    0.89394   0.07261   0.76844
C    C    0.88527   0.96981   0.92496
C    C    0.30070   0.40394   0.80580
C    C    0.04791   0.15478   0.75614
C    C    0.25051   0.22504   0.84824
C    C    0.13830   0.34518   0.78002
C    C    0.05723   0.35414   0.82411
C    C    0.26039   0.93870   0.80728
C    C    0.88935   0.99545   0.75577
C    C    0.23370   0.07883   0.83870
C    C    0.90779   0.77743   0.78037
C    C    0.25716   0.58661   0.69533
C    C    0.80985   0.84742   0.88897
C    C    0.17782   0.16091   0.76817
C    C    0.12847   1.00775   0.75982
C    C    0.58205   0.84069   0.77837
C    C    0.89111   0.78524   0.86600
C    C    0.16462   0.59446   0.91202
C    C    0.23093   0.16822   0.79438
C    C    0.74736   0.77021   0.78484
C    C    0.24627   0.31395   0.80230
C    C    0.58824   0.90768   0.79740
C    C    0.51010   0.78168   0.76078
C    C    0.65542   0.70981   0.85053
C    C    0.96551   0.82992   0.88785
C    C    0.27366   0.36610   0.87534
C    C    0.95560   0.88235   0.91134
C    C    0.08035   0.22862   0.89215
C    C    0.97124   0.91654   0.75069
C    C    0.89627   0.83929   0.76236
C    C    0.98567   0.77647   0.77833
C    C    0.03631   0.13051   0.93759
C    C    0.11616   0.60913   0.88827
C    C    0.59798   0.94306   0.86107
C    C    0.84330   0.11442   0.81630
C    C    0.15537   0.02168   0.90143
C    C    0.91948   0.19304   0.81556
C    C    0.04265   0.07568   0.74634
C    C    0.89993   0.14181   0.86859
C    C    0.73715   0.91259   0.77107
C    C    0.02751   0.75050   0.86210
C    C    0.81601   0.83679   0.76562
C    C    0.13542   0.20960   0.76731
C    C    0.19328   0.11012   0.89075
C    C    0.21942   0.99870   0.85353
C    C    0.82592   0.08453   0.84984
C    C    0.00818   0.16046   0.91095
C    C    0.87427   0.92409   0.08858
C    C    0.53419   0.65991   0.89006
C    C    0.28098   0.47337   0.91341
C    C    0.14522   0.86225   0.76976
C    C    0.95039   0.21619   0.84771
C    C    0.88239   0.89548   0.90975
C    C    0.97414   0.73884   0.83486
C    C    0.75979   1.00487   0.86167
C    C    0.17413   0.49900   0.77498
C    C    0.57550   0.90376   0.89182
C    C    0.52792   0.94068   0.84336
C    C    0.11319   0.68763   0.88800
C    C    0.90651   0.92081   0.97782
C    C    0.74474   0.87362   0.88836
C    C    0.43781   0.89099   0.79483
C    C    0.25387   0.24065   0.81535
C    C    0.97728   0.90603   0.96885
C    C    0.14830   0.38602   0.88589
C    C    0.03929   0.81526   0.88471
C    C    0.23172   0.14026   0.85962
C    C    0.26780   0.83816   0.77016
C    C    0.32458   0.81337   0.92751
C    C    0.66445   0.76163   0.78314
C    C    0.74353   0.74236   0.84404
C    C    0.17202   0.96681   0.88241
C    C    0.08191   0.30411   0.87694
C    C    0.59879   0.35922   0.28600
C    C    0.54252   0.35769   0.41380
C    C    0.97475   0.15505   0.76858
C    C    0.81218   0.78736   0.86803
C    C    0.51837   0.91547   0.81059
C    C    0.67708   0.96681   0.84435
C    C    0.74458   0.98141   0.78913
C    C    0.67289   0.95982   0.81125
C    C    0.48564   0.67923   0.91345
C    C    0.17657   0.52204   0.90992
C    C    0.22530   0.66581   0.92999
C    C    0.23290   0.74818   0.92560
C    C    0.45799   0.94037   0.86032
C    C    0.98520   0.07377   0.96394
C    C    0.39140   0.75121   0.62080
C    C    0.19747   0.84883   0.89811
C    C    0.08854   0.59600   0.83085
C    C    0.06835   0.66151   0.83211
C    C    0.00343   0.73063   0.80379
C    C    0.44245   0.91643   0.89337
C    C    0.13647   0.87346   0.89191
C    C    0.38206   0.91527   0.81004
C    C    0.49591   0.88665   0.90655
C    C    0.17273   0.28836   0.78233
C    C    0.10168   0.48193   0.85870
C    C    0.17347   0.75925   0.90737
C    C    0.37191   0.77039   0.93430
C    C    0.39081   0.94010   0.84281
C    C    0.12618   0.06662   0.95338
C    C    0.01833   0.92412   0.93774
C    C    0.29439   0.90229   0.89028
C    C    0.45886   0.80692   0.92441
C    C    0.30945   0.67799   0.93748
C    C    0.02468   0.29455   0.85220
C    C    0.25040   0.52788   0.92428
C    C    0.35612   0.88551   0.90619
C    C    0.50872   0.58565   0.83886
C    C    0.06946   0.70118   0.86154
C    C    0.22935   0.09050   0.80454
C    C    0.26432   0.95794   0.83930
C    C    0.20009   0.94222   0.78558
C    C    0.32401   0.60973   0.93328
C    C    0.65448   0.81393   0.88949
C    C    0.98222   0.22383   0.78980
C    C    0.51342   0.76922   0.91730
C    C    0.05757   0.69701   0.80233
C    C    0.35727   0.53264   0.76945
C    C    0.31454   0.60047   0.66673
C    C    0.90362   0.75069   0.83754
C    C    0.37308   0.52390   0.91080
C    C    0.58740   0.65754   0.82707
C    C    0.09593   0.55832   0.85987
C    C    0.41042   0.50822   0.88333
C    C    0.11942   0.70889   0.77703
C    C    0.51036   0.64867   0.77731
C    C    0.61774   0.72453   0.87934
C    C    0.42895   0.70593   0.70433
C    C    0.30475   0.89850   0.79500
C    C    0.05933   0.84813   0.76315
C    C    0.26765   0.56306   0.72632
C    C    0.34918   0.57316   0.74028
C    C    0.19075   0.01540   0.78305
C    C    0.31877   0.93901   0.85892
C    C    0.65853   0.83329   0.77496
C    C    0.14117   0.64037   0.77472
C    C    0.35663   0.43693   0.86219
C    C    0.05194   0.30839   0.79385
C    C    0.20657   0.56228   0.75023
C    C    0.13489   0.45919   0.88523
C    C    0.23154   0.27889   0.86954
C    C    0.86268   0.02085   0.90441
C    C    0.44179   0.53189   0.81709
C    C    0.18562   0.62928   0.74860
C    C    0.42649   0.85255   0.56118
C    C    0.20771   0.60548   0.63163
C    C    0.83603   0.20629   0.21386
C    C    0.45267   0.80837   0.74787
C    C    0.19820   0.43198   0.77653
C    C    0.23104   0.40087   0.89555
C    C    0.59059   0.83428   0.90117
C    C    0.40217   0.68082   0.67291
C    C    0.48905   0.57960   0.87215
C    C    0.17226   0.79885   0.76753
C    C    0.29354   0.77033   0.72391
C    C    0.19268   0.68347   0.58214
C    C    0.58162   0.91709   0.52617
C    C    0.36379   0.79453   0.70154
C    C    0.53374   0.82546   0.53395
C    C    0.12442   0.50442   0.79990
C    C    0.29084   0.43401   0.51490
C    C    0.49244   0.69687   0.75367
C    C    0.28683   0.83921   0.54053
C    C    0.08833   0.50260   0.55766
C    C    0.27849   0.75429   0.58731
C    C    0.17745   0.45690   0.53818
C    C    0.21893   0.41743   0.45447
C    C    0.19873   0.77073   0.53386
C    C    0.08119   0.69943   0.49328
C    C    0.32640   0.59926   0.60605
C    C    0.06732   0.62568   0.54468
C    C    0.30716   0.78612   0.40898
C    C    0.30470   0.38517   0.49101
C    C    0.21229   0.43438   0.51254
C    C    0.30055   0.54264   0.57859
C    C    0.31541   0.60909   0.40084
C    C    0.22456   0.83356   0.47949
C    C    0.31948   0.76405   0.61700
C    C    0.40254   0.60839   0.92301
C    C    0.09303   0.41604   0.47763
C    C    0.16961   0.41455   0.48196
C    C    0.46406   0.79618   0.55658
C    C    0.51180   0.67249   0.53032
C    C    0.15657   0.55088   0.40761
C    C    0.38798   0.68624   0.59872
C    C    0.29880   0.52290   0.41188
C    C    0.59222   0.87366   0.47289
C    C    0.94257   0.47797   0.55977
C    C    0.51855   0.08939   0.57312
C    C    0.14412   0.47699   0.42438
C    C    0.35526   0.47630   0.53898
C    C    0.82240   0.32983   0.57710
C    C    0.46176   0.25734   0.58724
C    C    0.02398   0.63998   0.51857
C    C    0.74146   0.53179   0.57583
C    C    0.34656   0.34132   0.49978
C    C    0.28526   0.39869   0.45853
C    C    0.60087   0.37814   0.60615
C    C    0.06588   0.67358   0.46052
C    C    0.02942   0.53535   0.55558
C    C    0.82606   0.46539   0.59093
C    C    0.64933   0.59430   0.49277
C    C    0.80102   0.57309   0.54935
C    C    0.63642   0.56418   0.55065
C    C    0.43925   0.64325   0.55261
C    C    0.09700   0.45268   0.53340
C    C    0.83107   0.49723   0.44039
C    C    0.58507   0.44123   0.59010
C    C    0.04976   0.42361   0.50497
C    C    0.87916   0.57062   0.54658
C    C    0.07217   0.43663   0.44682
C    C    0.21640   0.46480   0.42715
C    C    0.80675   0.42234   0.27439
C    C    0.32180   0.81570   0.75415
C    C    0.27522   0.58322   0.63633
C    C    0.51872   0.80619   0.42386
C    C    0.40360   0.68025   0.40169
C    C    0.55453   0.87924   0.44320
C    C    0.54745   0.76267   0.51674
C    C    0.93180   0.60177   0.51740
C    C    0.56332   0.72572   0.46008
C    C    0.71176   0.33489   0.61027
C    C    0.61296   0.94209   0.49454
C    C    0.57761   0.02291   0.45567
C    C    0.24249   0.62112   0.39926
C    C   -0.00695   0.58634   0.45101
C    C    0.76635   0.20804   0.53935
C    C    0.56228   0.22258   0.60317
C    C    0.36854   0.50721   0.41848
C    C    0.24011   0.70075   0.40341
C    C    0.37117   0.91507   0.43773
C    C    0.53201   0.73673   0.43056
C    C    0.59524   0.49983   0.44408
C    C    0.65526   0.51824   0.57479
C    C    0.68799   0.10720   0.49564
C    C    0.53854   0.28754   0.60513
C    C    0.13959   0.72210   0.43894
C    C    0.54804   0.61831   0.52469
C    C    0.00140   0.45207   0.44589
C    C    0.57802   0.78969   0.48426
C    C    0.58444   0.10529   0.44630
C    C    0.55912   0.64409   0.46495
C    C    0.79741   0.37490   0.59800
C    C    0.10064   0.58327   0.41518
C    C    0.43946   0.77367   0.40634
C    C    0.15682   0.53196   0.57899
C    C    0.32956   0.91980   0.52109
C    C    0.39711   0.08589   0.52255
C    C    0.68689   0.40000   0.61071
C    C    0.35596   0.43212   0.43662
C    C    0.75613   0.47835   0.59681
C    C    0.50058   0.41256   0.57823
C    C    0.76803   0.59106   0.52111
C    C    0.65023   0.24608   0.60371
C    C    0.89602   0.38244   0.55651
C    C    0.88301   0.58915   0.48840
C    C    0.46796   0.66304   0.41358
C    C    0.90462   0.55528   0.46032
C    C    0.88835   0.51293   0.56763
C    C    0.37565   0.29508   0.47979
C    C    0.02208   0.53582   0.43336
C    C    0.82621   0.26918   0.51621
C    C    0.67510   0.19607   0.58466
C    C    0.56912   0.97697   0.54555
C    C    0.15284   0.69118   0.55347
C    C    0.43651   0.17381   0.57348
C    C    0.44350   0.31835   0.57398
C    C    0.96092   0.39775   0.50042
C    C    0.62874   0.02488   0.48151
C    C    0.43164   0.05639   0.46682
C    C    0.40056   0.43453   0.54608
C    C    0.51061   0.11482   0.44655
C    C    0.45685   0.00978   0.55641
C    C    0.33149   0.81799   0.56380
C    C    0.45442   0.58133   0.42084
C    C    0.60832   0.11395   0.57255
C    C    0.28219   0.75372   0.64836
C    C    0.75999   0.24037   0.56975
C    C    0.72375   0.45444   0.38616
C    C    0.69861   0.28040   0.36960
C    C    0.43016   0.71007   0.56881
C    C    0.80004   0.26018   0.48344
C    C    0.78228   0.42389   0.39024
C    C    0.80199   0.58420   0.49080
C    C    0.69721   0.47654   0.41399
C    C    0.51633   0.19267   0.43415
C    C    0.76036   0.51287   0.43907
C    C    0.57158   0.23944   0.40749
C    C    0.65727   0.25241   0.40074
C    C    0.72328   0.18205   0.47469
C    C    0.37246   0.96740   0.46407
C    C    0.81708   0.42366   0.42042
C    C    0.37009   0.55567   0.55701
C    C    0.43028   0.42040   0.44155
C    C    0.29114   0.84182   0.42859
C    C    0.51150   0.49532   0.44384
C    C    0.89790   0.35024   0.52602
C    C    0.41519   0.18271   0.47624
C    C    0.39530   0.00444   0.53497
C    C    0.68991   0.59126   0.52224
C    C    0.37611   0.35254   0.53153
C    C    0.93130   0.39786   0.46927
C    C    0.84182   0.33453   0.46186
C    C    0.28680   0.45747   0.78279
C    C    0.47249   0.30463   0.43684
C    C    0.67376   0.18216   0.44804
C    C    0.67113   0.41955   0.35696
C    C    0.74433   0.55578   0.46419
C    C    0.05210   0.75239   0.16780
C    C    0.41221   0.10624   0.48973
C    C    0.46163   0.22253   0.44712
C    C    0.50518   0.26507   0.24295
C    C    0.79526   0.33785   0.43492
C    C    0.59837   0.33807   0.36084
C    C    0.67632   0.49360   0.22706
C    C    0.66521   0.55652   0.46488
C    C    0.67892   0.22114   0.31342
C    C    0.46110   0.07070   0.17517
C    C    0.51510   0.57795   0.44239
C    C    0.65520   0.13068   0.08706
C    C    0.61903   0.09438   0.17376
C    C    0.67005   0.18928   0.25778
C    C    0.62150   0.09106   0.11714
C    C    0.75789   0.25385   0.26444
C    C    0.38095   0.21658   0.52857
C    C    0.59006   0.62263   0.49462
C    C    0.39433   0.29202   0.54570
C    C    0.66175   0.12822   0.20362
C    C    0.49368   0.10303   0.10774
C    C    0.69090   0.26383   0.06412
C    C    0.61959   0.17821   0.07265
C    C    0.78009   0.97178   0.16338
C    C    0.66624   0.47621   0.08867
C    C    0.38148   0.28606   0.12548
C    C    0.80381   0.16782   0.09898
C    C    0.53591   0.07805   0.16114
C    C    0.91728   0.44504   0.19489
C    C    0.83854   0.34065   0.08534
C    C    0.52388   0.23536   0.07740
C    C    0.06955   0.10452   0.04916
C    C    0.82708   0.05140   0.11299
C    C    0.83646   0.57688   0.23288
C    C    0.89910   0.55890   0.22183
C    C    0.74749   0.18130   0.08166
C    C    0.29966   0.98438   0.16014
C    C    0.54135   0.07804   0.12702
C    C    0.75101   0.45524   0.27099
C    C    0.30038   0.00699   0.21739
C    C    0.59779   0.32257   0.06991
C    C    0.44534   0.22223   0.09145
C    C    0.88848   0.47141   0.22219
C    C    0.82440   0.85597   0.14368
C    C    0.53520   0.14697   0.22740
C    C    0.83276   0.64592   0.11131
C    C    0.89058   0.32563   0.10695
C    C    0.62212   0.15251   0.22839
C    C    0.59226   0.39485   0.07873
C    C    0.92413   0.45489   0.13623
C    C    0.49853   0.42038   0.14895
C    C    0.68161   0.55520   0.14049
C    C    0.95329   0.62266   0.13816
C    C    0.76951   0.26634   0.07118
C    C    0.64154   0.52636   0.17202
C    C    0.51494   0.37940   0.09506
C    C    0.38682   0.04371   0.15273
C    C    0.76101   0.42032   0.07647
C    C    0.72568   0.06465   0.14538
C    C    0.87975   0.24265   0.10903
C    C    0.85930   0.29822   0.21669
C    C    0.68455   0.33815   0.06655
C    C    0.89365   0.48249   0.10973
C    C    0.96847   0.18225   0.11873
C    C    0.62286   0.18458   0.28715
C    C    1.00017   0.77255   0.11557
C    C    0.41246   0.34426   0.15120
C    C    0.58899   0.41849   0.23007
C    C    0.55251   0.55543   0.54879
C    C    0.85145   0.80102   0.22683
C    C    0.44325   0.32272   0.20567
C    C    0.53944   0.16570   0.08236
C    C    0.88820   0.74486   0.23265
C    C    0.75406   0.49376   0.08591
C    C    0.97970   0.78977   0.24197
C    C    0.92416   0.37713   0.13505
C    C    0.63308   0.50375   0.11489
C    C    0.96063   0.62146   0.19775
C    C    0.37757   0.09413   0.21567
C    C    0.23959  -0.00411   0.24089
C    C    0.18101   0.86991   0.19432
C    C    0.84417   0.40756   0.24632
C    C    0.77733   0.08661   0.11712
C    C    0.74567   0.02493   0.17146
C    C    0.16057   0.91507   0.24547
C    C    0.52755   0.40277   0.20509
C    C    0.95762   0.90613   0.26308
C    C    0.38802   0.14342   0.10912
C    C    0.69484   0.55320   0.20007
C    C    0.55387   0.45513   0.17620
C    C    1.01446   0.71186   0.19837
C    C    0.89907   0.56319   0.11219
C    C    0.54183   0.44344   0.11900
C    C    0.13167   0.08061   0.05644
C    C    0.44073   0.29694   0.10007
C    C    0.22989   0.96741   0.13791
C    C    0.16730   0.02274   0.10147
C    C    0.04008   0.77591   0.22461
C    C    0.75171   0.13558   0.20836
C    C    0.13031   0.83269   0.16601
C    C    0.93426   0.49478   0.16622
C    C    0.21622   0.23141   0.16516
C    C    0.93800   0.23499   0.12946
C    C    0.26612   0.94611   0.19185
C    C    0.49869   0.15054   0.58500
C    C    0.82695   0.78519   0.13164
C    C    0.91100   0.73712   0.10592
C    C    0.76822   0.63152   0.13325
C    C    1.00378   0.71390   0.13891
C    C    0.36402   0.16183   0.22209
C    C    0.22565   0.06588   0.24914
C    C    0.46219   0.10359   0.20600
C    C    0.16446   0.09642   0.08764
C    C    0.23465   0.03834   0.12146
C    C    0.83564   0.65703   0.22393
C    C    0.10548   0.05920   0.98543
C    C    0.30764   0.12952   0.12149
C    C    0.13059   0.84572   0.22381
C    C    0.01903   0.26132   0.17661
C    C    0.80848   0.85784   0.17739
C    C    0.99162  -0.00423   0.26951
C    C    0.30257   0.20042   0.12875
C    C    0.43770   0.25207   0.22238
C    C    0.77803   0.70935   0.18263
C    C    0.89956  -0.00664   0.06457
C    C    0.13812   0.02470   0.26248
C    C    0.75557   0.05660   0.20293
C    C    0.95075   0.57996   0.16736
C    C    0.37459   0.30681   0.18296
C    C    0.48419   0.47344   0.56153
C    C    0.09501   0.98670   0.00798
C    C    0.79529   0.92529   0.18819
C    C    0.05781   0.92932   0.06365
C    C    0.91184   0.36307   0.19329
C    C    0.13731   0.23958   0.21118
C    C    0.05251   0.20298   0.12733
C    C    0.87950   0.87496   0.24524
C    C    0.27958   0.14668   0.23268
C    C    0.92655   0.01494   0.26027
C    C    0.08294   0.05892   0.26597
C    C    1.00008   0.24154   0.21022
C    C    0.94721   0.10041   0.25356
C    C    0.06039   0.22715   0.22606
C    C    0.17238   0.19715   0.23072
C    C    0.24912   0.20165   0.22037
C    C    0.80653   0.78949   0.19729
C    C    0.16006   0.15785   0.10934
C    C    0.11198  -0.00100   0.04045
C    C    0.91743  -0.00809   0.03218
C    C    0.80815   0.03913   0.22381
C    C    0.08979   0.17034   0.10421
C    C    0.76705   0.63713   0.20238
C    C    0.07737   0.24046   0.15942
C    C    0.10074   0.93169   0.26114
C    C    0.85994   0.94341   0.24281
C    C    0.14816   0.88590   0.13807
C    C    0.07850   0.86412   0.11520
C    C    0.10449   0.14315   0.25405
C    C    0.03713   0.16330   0.25084
C    C    0.88433   0.11308   0.23734
C    C    0.90869   0.19362   0.22155
C    C    0.62990   0.06697   0.55002
C    C    0.01547   0.90825  -0.00069
C    C    0.91986   0.11367   0.89781
C    C    0.81099   0.96038   0.22003
C    C    0.28632   0.25082   0.18935
C    C    0.38281   0.22627   0.49439
C    C    0.84024   0.92239   0.12064
C    C    0.14578   0.24138   0.17755
C    C    0.93715   0.34115   0.16362
C    C    0.91328   0.99093   0.95674
C    C    0.03719   0.07851   0.99179
C    C    0.41651   0.08940   0.12113
C    C    0.87812   0.79578   0.10383
C    C    0.91316   0.10773   0.09980
C    C    1.01103   0.87067   0.25886
C    C    0.52465   0.94031   0.43989
C    C    0.70210   0.12267   0.52915
C    C    0.78543   0.70758   0.14964
C    C    0.81247   0.97794   0.13154
C    C    0.16468   0.77158   0.50287
C    C    0.83560   0.41860   0.08748
C    C    1.00494   0.06466   0.02308
C    C    0.83009   0.56882   0.09916
C    C    0.90359   0.86469   0.08252
C    C    0.09342   0.44305   0.82729
C    C    0.48163   0.94236   0.55632
C    C    0.09660   0.93602   0.09441
C    C    0.82360   0.05882   0.78955
C    C    0.40002   0.82281   0.40880
C    C    0.71042   0.25930   0.42828
C    C    0.96484   0.28065   0.15782
C    C    0.22063   0.19621   0.13606
C    C    0.44159   0.90537   0.42548
C    C    0.21277   0.80515   0.44739
C    C    0.39725   0.15245   0.54284
C    C    0.66317   0.08707   0.14640
C    C    0.94834   0.08142   0.07787
C    C    0.30454   0.91156   0.48869
C    C    0.89523   0.91520   0.01112
C    C    0.11568   0.12998   0.93466
C    C    0.78413   0.96814   0.88704
C    C    0.96832   0.88147   0.05630
C    C    0.10634   0.99481   0.93185
C    C    0.16018   0.15802   0.90584
C    C    0.15473   0.22408   0.88936
C    C    0.94942   0.88215   0.02389
C    C    0.42140   0.33537   0.45112
C    C    0.04083   0.13082   0.07523
C    C    0.36972   0.45192   0.82876
C    C    0.15334   0.67516   0.41480
C    C    0.17633   0.60434   0.60036
C    C    0.42502   0.65088   0.73080
C    C    0.35739   0.78373   0.66961
C    C    0.40866   0.84420   0.76537
C    C    0.43906   0.56660   0.78618
C    C    0.21627   0.66659   0.65797
C    C    0.42878   0.78154   0.71675
C    C    0.40817   0.75262   0.65316
C    C    0.60759   0.44929   0.42095
C    C    0.22108   0.68599   0.71958
C    C    0.71908   0.43092   0.32715
C    C    0.75033   0.50589   0.24382
C    C    0.77015   0.36402   0.36403
C    C    0.64645   0.24344   0.34054
C    C    0.58920   0.27392   0.33564
C    C    0.56279   0.30831   0.39276
C    C    0.56654   0.27687   0.30333
C    C    0.68496   0.42793   0.29610
C    C    0.21441   0.63768   0.69055
C    C    0.77761   0.40035   0.33139
C    C    0.76290   0.27962   0.29760
C    C    0.56546   0.35157   0.25406
C    C    0.52490   0.19948   0.25171
C    C    0.56105   0.21010   0.28240
C    C    0.82379   0.31904   0.24224
C    C    0.79664   0.37006   0.30279
C    C    0.21342   0.50087   0.56842

