# CIF file generated by openbabel 2.3.2, see http://openbabel.sf.net
data_ITT_nozeolite_relaxed
_symmetry_cell_setting           triclinic
_symmetry_space_group_name_H-M   'P 1'
_symmetry_Int_Tables_number      1
loop_
_symmetry_equiv_pos_site_id
_symmetry_equiv_pos_as_xyz
1 x,y,z
_cell_length_a                   19.3993989724
_cell_length_b                   19.685909642
_cell_length_c                   12.3354501144
_cell_angle_alpha                88.2175498205
_cell_angle_beta                 91.6313341783
_cell_angle_gamma                120.806098553
loop_
    _atom_site_label
    _atom_site_type_symbol
    _atom_site_fract_x
    _atom_site_fract_y
    _atom_site_fract_z
C    C    0.81208   0.65708   0.53302
C    C    0.21632   0.28223   0.72580
C    C    0.29925   0.18052   0.73808
C    C    0.06718   0.78065   0.73897
C    C    0.91196   0.69011   0.68401
C    C    0.30282   0.35478   0.87385
C    C    0.25535   0.94514   0.14246
C    C    0.74636   0.70185   0.90616
C    C    0.78855   0.65892   0.15895
C    C    0.07931   0.83296   0.52719
C    C    0.89159   0.22924   0.75590
C    C    0.14677   0.92023   0.25734
C    C    0.28101   0.29092   0.79802
C    C    0.17704   0.25367   0.43331
C    C    0.95546   0.24509   0.57516
C    C    0.39216   0.95578   0.83582
C    C    0.11667   0.83526   0.10012
C    C    0.13881   0.88846   0.60017
C    C    0.94779   0.70913   0.50032
C    C    0.39809   0.48582   0.94401
C    C    0.09545   0.27990   0.57476
C    C    0.32061   0.24862   0.80750
C    C    0.24472   0.05161   0.38425
C    C    0.37889   0.41844   0.87709
C    C    0.08949   0.85755   0.19174
C    C    0.30795   0.11598   0.77821
C    C    0.19887   0.28796   0.23565
C    C    0.36087   0.24327   0.10684
C    C    0.37966   0.27422   0.90471
C    C    0.88559   0.50671   0.01336
C    C    0.13720   0.85728   0.70948
C    C    0.37111   0.15546   0.97319
C    C    0.07358   0.84833   0.41604
C    C    0.86306   0.69318   0.33797
C    C    0.24033   0.86913   0.98349
C    C    0.24597   0.35290   0.05055
C    C    0.19213   0.96675   0.55447
C    C    0.71624   0.65634   0.19868
C    C    0.93222   0.21681   0.34816
C    C    0.98771   0.29626   0.19229
C    C    0.41753   0.14060   0.05360
C    C    0.80074   0.67116   0.41888
C    C    0.86372   0.70004   0.22067
C    C    0.32075   0.18860   0.20020
C    C    0.00817   0.79562   0.34944
C    C    0.35858   0.12131   0.87122
C    C    0.54924   0.69899   0.95931
C    C    0.88831   0.38236   0.01589
C    C    0.76394   0.71807   0.42269
C    C    0.19244   0.97754   0.43934
C    C    0.66729   0.56099   0.90622
C    C    0.47109   0.38477   0.10498
C    C    0.20350   0.89193   0.78652
C    C    0.10031   0.29854   0.68832
C    C    0.52793   0.56449   0.84898
C    C    0.26765   0.04890   0.27730
C    C    0.19665   0.84231   0.87848
C    C    0.25960   0.18528   0.38545
C    C    0.62423   0.92334   0.90199
C    C    0.44678   0.34871   0.91100
C    C    0.77944   0.09234   0.80683
C    C    0.93996   0.72710   0.39343
C    C    0.74930   0.76844   0.84889
C    C    0.76145   0.07674   0.27482
C    C    0.49521   0.99335   0.17099
C    C    0.75510   0.79943   0.56228
C    C    0.85037   0.19527   0.15718
C    C    0.01529   0.76074   0.56353
C    C    0.75595   0.73304   0.53087
C    C    0.32717   0.11847   0.21344
C    C    0.23661   0.34682   0.93742
C    C    0.59465   0.09587   0.94278
C    C    0.97500   0.57442   0.14826
C    C    0.94692   0.74353   0.17486
C    C    0.01595   0.51465   0.83199
C    C    0.74598   0.99665   0.66109
C    C    0.59296   0.97849   0.88183
C    C    0.26027   0.11166   0.55970
C    C    0.36296   0.22120   1.00029
C    C    0.59658   0.51778   0.14264
C    C    0.11929   0.33300   0.12403
C    C    0.63378   0.08313   0.12577
C    C    0.73968   0.87929   0.29729
C    C    0.90468   0.52193   0.90186
C    C    0.61499   0.83139   0.05262
C    C    0.01210   0.80475   0.23665
C    C    0.26873   0.04090   0.72381
C    C    0.46523   0.50607   0.11517
C    C    0.13628   0.91765   0.37038
C    C    0.70349   0.86533   0.81035
C    C    0.05550   0.47211   0.86689
C    C    0.96143   0.26845   0.68446
C    C    0.75509   0.76426   0.34078
C    C    0.74032   0.94783   0.32845
C    C    0.87790   0.18884   0.53315
C    C    0.07910   0.27761   0.31590
C    C    0.24768   0.22468   0.56860
C    C    0.93713   0.60362   0.86056
C    C    0.88354   0.66660   0.57420
C    C    0.75232   0.84981   0.48274
C    C    0.66525   0.87684   0.13915
C    C    0.47388   0.10541   0.90926
C    C    0.05794   0.62623   0.12020
C    C    0.86964   0.69142   0.87775
C    C    0.93141   0.34583   0.86220
C    C    0.74181   0.92643   0.62822
C    C    0.38753   0.46222   0.05881
C    C    0.63605   0.49743   0.06653
C    C    0.20857   0.26000   0.61835
C    C    0.33458   0.34000   0.17938
C    C    0.68432   0.78532   0.85931
C    C    0.62311   0.71880   0.11956
C    C    0.78211   0.69376   0.60238
C    C    0.76424   0.04265   0.46786
C    C    0.90899   0.65053   0.91788
C    C    0.59614   0.48970   0.88815
C    C    0.78369   0.12399   0.91326
C    C    0.74010   0.87236   0.70753
C    C    0.03985   0.30805   0.73464
C    C    0.91803   0.57828   0.07584
C    C    0.99813   0.74376   0.67249
C    C    0.01274   0.25120   0.39429
C    C    0.02415   0.26200   0.51131
C    C    0.93159   0.47228   0.85801
C    C    0.89823   0.44879   0.07283
C    C    0.69258   0.76912   0.17706
C    C    0.44135   0.88601   0.93011
C    C    0.95836   0.49285   0.15437
C    C    0.97420   0.34972   0.13191
C    C    0.01236   0.38758   0.84955
C    C    0.16247   0.30616   0.76240
C    C    0.85769   0.23857   0.05314
C    C    0.68929   0.92997   0.83500
C    C    0.27189   0.28131   0.23715
C    C    0.18428   0.31984   0.13539
C    C    0.58603   0.87508   0.98934
C    C    0.06113   0.75467   0.07237
C    C    0.40091   0.04338   0.18489
C    C    0.35200   0.99960   0.81585
C    C    0.63403   0.60188   0.16956
C    C    0.92371   0.64632   0.03141
C    C    0.78360   0.77595   0.74667
C    C    0.80723   0.72004   0.70858
C    C    0.97578   0.72009   0.09023
C    C    0.83047   0.15093   0.72633
C    C    0.50855   0.94622   0.86272
C    C    0.43690   0.92641   0.11373
C    C    0.59728   0.11801   0.05528
C    C    0.31701   0.88274   0.99645
C    C    0.59358   0.94813   0.14579
C    C    0.76237   0.81778   0.67204
C    C    0.80985   0.68907   0.94719
C    C    0.52329   0.07452   0.87994
C    C    0.13380   0.70489   0.96644
C    C    0.05895   0.59880   0.84020
C    C    0.90352   0.32303   0.06915
C    C    0.13881   0.76155   0.88266
C    C    0.89976   0.39329   0.90296
C    C    0.11210   0.37585   0.02497
C    C    0.71999   0.99258   0.25593
C    C    0.01683   0.64202   0.82377
C    C    0.12057   0.63157   0.92471
C    C    0.91893   0.22893   0.23379
C    C    0.09709   0.43753   0.03976
C    C    0.05620   0.34692   0.83563
C    C    0.15759   0.26834   0.53781
C    C    0.88660   0.25948   0.85589
C    C    0.04231   0.43176   0.12238
C    C    0.08887   0.57400   0.10330
C    C    0.63630   0.05501   0.92295
C    C    0.11963   0.57392   0.00034
C    C    0.74841   0.91507   0.51685
C    C    0.07148   0.72882   0.81550
C    C    0.82255   0.13605   0.61355
C    C    0.03347   0.49445   0.14656
C    C    0.53113   0.12012   0.09355
C    C    0.48167   0.13375   0.01618
C    C    0.32478   0.39163   0.09939
C    C    0.46746   0.89061   0.04047
C    C    0.75264   0.83269   0.37335
C    C    0.77178   0.05837   0.57983
C    C    0.86316   0.70032   0.76121
C    C    0.66493   0.94661   0.17234
C    C    0.83934   0.20666   0.94244
C    C    0.37059   0.89094   0.90764
C    C    0.74878   0.96779   0.43766
C    C    0.60242   0.63748   0.85294
C    C    0.27265   0.17638   0.62550
C    C    0.67245   0.63387   0.88212
C    C    0.52562   0.48896   0.84493
C    C    0.49421   0.62075   0.99207
C    C    0.50541   0.37821   1.00513
C    C    0.73613   0.00723   0.77251
C    C    0.26148   0.12013   0.44303
C    C    0.22559   0.97493   0.22198
C    C    0.70569   0.56279   0.01108
C    C    0.77494   0.63188   0.04463
C    C    0.46325   0.55877   0.91301
C    C    0.28017   0.21231   0.27476
C    C    0.58611   0.63586   0.13724
C    C    0.58226   0.43985   0.98433
C    C    0.38461   0.10896   0.15900
C    C    0.39466   0.32610   0.13458
C    C    0.23146   0.22345   0.45421
C    C    0.60750   0.71239   0.87913
C    C    0.50788   0.58958   0.09386
C    C    0.16629   0.32787   0.87348
C    C    0.50912   0.46837   0.14009
C    C    0.15026   0.27128   0.32921
C    C    0.79450   0.10243   0.38350
C    C    0.54211   0.89779   0.06375
C    C    0.06591   0.30720   0.21471
C    C    0.11322   0.35099   0.91240
C    C    0.71478   0.08744   0.98208
C    C    0.72935   0.73360   0.23740
C    C    0.59023   0.75259   0.04768
C    C    0.86523   0.17326   0.42020
C    C    0.71248   0.09777   0.09287
C    C    0.10536   0.49900   0.95970
C    C    0.45191   0.41745   0.85183
C    C    0.70731   0.84640   0.19636
C    C    0.09023   0.69890   0.05846
C    C    0.39856   0.07847   0.85559
C    C    0.77681   0.12448   0.17665
C    C    0.27266   0.97386   0.77554
C    C    0.20162   0.88144   0.07401
C    C    0.36095   0.91882   0.09427
C    C    0.33804   0.96687   0.14862
C    C    0.47962   0.05871   0.17266
C    C    0.57674   0.01065   0.17142
C    C    0.48054   0.99828   0.83258
C    C    0.24035   0.03808   0.61483

