# CIF file generated by openbabel 2.3.2, see http://openbabel.sf.net
data_BEC_nozeolite_relaxed
_symmetry_cell_setting           triclinic
_symmetry_space_group_name_H-M   'P 1'
_symmetry_Int_Tables_number      1
loop_
_symmetry_equiv_pos_site_id
_symmetry_equiv_pos_as_xyz
1 x,y,z
_cell_length_a                   12.4477436369
_cell_length_b                   12.9685889231
_cell_length_c                   12.5766499527
_cell_angle_alpha                89.1152428194
_cell_angle_beta                 90.0181041513
_cell_angle_gamma                87.1815695168
loop_
    _atom_site_label
    _atom_site_type_symbol
    _atom_site_fract_x
    _atom_site_fract_y
    _atom_site_fract_z
C    C    0.63422   0.08281   0.54180
C    C    0.39066   0.07323   0.60733
C    C    0.55468   0.21691   0.65705
C    C    0.61923   0.16782   0.46200
C    C    0.47233   0.95571   0.37576
C    C    0.44759   0.75342   0.65064
C    C    0.43711   0.13375   0.40750
C    C    0.62242   0.26969   0.48966
C    C    0.57814   0.10822   0.63725
C    C    0.38489   0.67974   0.58678
C    C    0.49260   0.03407   0.65597
C    C    0.57180   0.00665   0.39291
C    C    0.55040   0.12006   0.38568
C    C    0.59669   0.89547   0.56344
C    C    0.42346   0.85815   0.63839
C    C    0.51506   0.92854   0.64214
C    C    0.39597   0.03297   0.42094
C    C    0.61428   0.73364   0.44327
C    C    0.39922   0.64565   0.39142
C    C    0.48296   0.36610   0.38372
C    C    0.59030   0.35709   0.41628
C    C    0.35493   1.00216   0.52316
C    C    0.62388   0.98316   0.49271
C    C    0.60109   0.55190   0.73671
C    C    0.61457   0.55468   0.26638
C    C    0.60591   0.78887   0.54631
C    C    0.39228   0.21574   0.47580
C    C    0.40453   0.35612   0.64467
C    C    0.37825   0.50243   0.52172
C    C    0.64015   0.39829   0.62766
C    C    0.37501   0.82257   0.46137
C    C    0.62242   0.29495   0.60222
C    C    0.66629   0.46796   0.54211
C    C    0.38281   0.17855   0.58800
C    C    0.38380   0.39401   0.54105
C    C    0.56301   0.72201   0.63289
C    C    0.44342   0.24788   0.65371
C    C    0.37137   0.71508   0.48023
C    C    0.47757   0.68169   0.31783
C    C    0.39178   0.53753   0.41288
C    C    0.64926   0.62668   0.45146
C    C    0.53372   0.76603   0.36676
C    C    0.40758   0.31850   0.45705
C    C    0.61821   0.38303   0.83076
C    C    0.64357   0.54532   0.37567
C    C    0.37778   0.57227   0.61020
C    C    0.45567   0.85237   0.38677
C    C    0.37958   0.53078   0.71597
C    C    0.39803   0.42411   0.73005
C    C    0.42647   0.46074   0.33741
C    C    0.35711   0.89620   0.54691
C    C    0.21757   0.44986   0.85939
C    C    0.69274   0.58635   0.90398
C    C    0.34310   0.58648   0.81533
C    C    0.72034   0.34393   1.00013
C    C    0.51317   0.62215   0.91761
C    C    0.88007   0.58563   0.92332
C    C    0.86820   0.59766   0.03483
C    C    0.84443   0.42131   0.13438
C    C    0.76490   0.58459   0.08241
C    C    0.56184   0.63015   0.02559
C    C    0.81144   0.42923   0.85688
C    C    0.91855   0.38930   0.88850
C    C    0.12057   0.39320   0.01569
C    C    0.67577   0.61413   0.01249
C    C    0.75701   0.49620   0.15092
C    C    0.58850   0.39623   0.15377
C    C    0.82543   0.34817   0.05268
C    C    0.06468   0.61525   0.93550
C    C    0.16918   0.62759   0.90446
C    C    0.39963   0.62631   0.90246
C    C    0.34013   0.63927   0.00172
C    C    0.50040   0.63033   0.11948
C    C    0.61916   0.34966   0.05126
C    C    0.53599   0.62641   0.23047
C    C    0.98545   0.55828   0.88358
C    C    0.95384   0.45395   0.12840
C    C    0.01373   0.38350   0.05764
C    C    0.66041   0.57742   0.55389
C    C    0.59446   0.59117   0.84676
C    C    0.00997   0.45291   0.86522
C    C    0.71591   0.37022   0.88707
C    C    0.52150   0.34760   0.99275
C    C    0.16711   0.59683   0.08624
C    C    0.96528   0.56001   0.09409
C    C    0.38816   0.61443   0.10340
C    C    0.23046   0.64259   0.00144
C    C    0.40761   0.46504   0.22993
C    C    0.41094   0.38558   0.83999
C    C    0.31730   0.39296   0.90206
C    C    0.92544   0.34234   0.99310
C    C    0.51714   0.36233   0.88202
C    C    0.11958   0.41733   0.90362
C    C    0.79310   0.53744   0.87319
C    C    0.33703   0.54065   0.16704
C    C    0.62095   0.44510   0.72905
C    C    0.23334   0.55919   0.83757
C    C    0.05951   0.60017   0.05118
C    C    0.42917   0.37056   0.05983
C    C    0.32133   0.38246   0.01736
C    C    0.46985   0.39826   0.16045
C    C    0.65164   0.44802   0.43131
C    C    0.23145   0.51101   0.13334
C    C    0.61075   0.62087   0.64596
C    C    0.65252   0.47174   0.19316
C    C    0.22198   0.41566   0.07285

