# CIF file generated by openbabel 2.3.2, see http://openbabel.sf.net
data_IRR_2_nozeolite_relaxed
_symmetry_cell_setting           triclinic
_symmetry_space_group_name_H-M   'P 1'
_symmetry_Int_Tables_number      1
loop_
_symmetry_equiv_pos_site_id
_symmetry_equiv_pos_as_xyz
1 x,y,z
_cell_length_a                   19.5850292504
_cell_length_b                   19.8596428511
_cell_length_c                   13.8933893197
_cell_angle_alpha                89.7984563083
_cell_angle_beta                 89.6219753044
_cell_angle_gamma                119.805690805
loop_
    _atom_site_label
    _atom_site_type_symbol
    _atom_site_fract_x
    _atom_site_fract_y
    _atom_site_fract_z
C    C    0.27357   0.17345   0.66843
C    C    0.19813   0.04752   0.45187
C    C    0.24875   0.18173   0.29816
C    C    0.23029   0.11613   0.50969
C    C    0.12741   0.81382   0.78366
C    C    0.17562   0.96995   0.59814
C    C    0.24803   0.10969   0.60610
C    C    0.17666   0.97183   0.31101
C    C    0.93252   0.75077   0.66294
C    C    0.23839   0.95268   0.76968
C    C    0.43034   0.07436   0.12549
C    C    0.22607   0.18225   0.47818
C    C    0.26016   0.34646   0.14253
C    C    0.18099   0.24672   0.36871
C    C    0.41849   0.12074   0.05129
C    C    0.44158   0.10458   0.95764
C    C    0.16833   0.80544   0.86342
C    C    0.00428   0.64263   0.86262
C    C    0.25534   0.11359   0.29044
C    C    0.29612   0.10314   0.21193
C    C    0.14750   0.26702   0.44734
C    C    0.15568   0.97528   0.50237
C    C    0.42693   0.98064   0.86016
C    C    0.22337   0.23084   0.55167
C    C    0.21619   0.20020   0.38148
C    C    0.28367   0.93630   0.83352
C    C    0.04436   0.76296   0.76149
C    C    0.16763   0.88747   0.73401
C    C    0.32940   0.93754   0.14016
C    C    0.32163   0.22833   0.14527
C    C    0.17989   0.27742   0.27604
C    C    0.17775   0.26802   0.54036
C    C    0.06474   0.83989   0.61093
C    C    0.20854   0.04652   0.35273
C    C    0.29339   0.02827   0.20463
C    C    0.56954   0.03488   0.85349
C    C    0.19211   0.88585   0.19845
C    C    0.90564   0.77032   0.57675
C    C    0.38557   0.92582   0.08668
C    C    0.13740   0.89808   0.64681
C    C    0.32557   0.23636   0.82409
C    C    0.36420   0.99618   0.85425
C    C    0.33036   0.16176   0.13831
C    C    0.01485   0.23831   0.48990
C    C    0.12591   0.30481   0.25508
C    C    0.13094   0.34102   0.16503
C    C    0.33184   0.10434   0.88408
C    C    0.37746   0.06786   0.89210
C    C    0.35326   0.01558   0.16802
C    C    0.34529   0.22959   0.92199
C    C    0.54863   0.09367   0.02729
C    C    0.23157   0.03701   0.64622
C    C    0.29800   0.16977   0.76297
C    C    0.11113   0.42231   0.04799
C    C    0.07605   0.66575   0.90853
C    C    0.95885   0.80212   0.49287
C    C    0.24794   0.86305   0.88144
C    C    0.25988   0.03106   0.73679
C    C    0.04013   0.84590   0.51639
C    C    0.78724   0.86530   0.54787
C    C    0.48963   0.91206   0.93016
C    C    0.25824   0.23288   0.64168
C    C    0.08838   0.29191   0.64724
C    C    0.08268   0.37494   0.13424
C    C    0.64960   0.06298   0.08451
C    C    0.50661   0.09682   0.94293
C    C    0.28232   0.86030   0.97251
C    C    0.62947   0.88198   0.17887
C    C    0.49028   0.05642   0.10999
C    C    0.36822   0.15110   0.05141
C    C    0.46827   0.97334   0.11227
C    C    0.06730   0.64234   0.10406
C    C    0.27796   0.40872   0.95708
C    C    0.20728   0.38615   0.01051
C    C    0.28081   0.39057   0.85723
C    C    0.11053   0.82686   0.22136
C    C    0.09475   0.47978   0.01905
C    C    0.51600   0.40278   0.99604
C    C    0.85373   0.76713   0.36590
C    C    0.81409   0.81492   0.51580
C    C    0.70413   0.56245   0.05278
C    C    0.57147   0.46712   0.14033
C    C    0.61620   0.09005   0.01078
C    C    0.56825   0.86791   0.01299
C    C    0.22783   0.83417   0.05018
C    C    0.88076   0.71273   0.74313
C    C    0.10397   0.72226   0.10909
C    C    0.77489   0.91223   0.48036
C    C    0.00427   0.35282   0.16069
C    C    0.98738   0.70867   0.18457
C    C    0.78592   0.16355   0.03517
C    C    0.51994   0.94508   0.10076
C    C    0.93326   0.78955   0.39247
C    C    0.86207   0.69990   0.22186
C    C    0.83625   0.77708   0.58824
C    C    0.75480   0.92825   0.67979
C    C    0.01829   0.24581   0.59006
C    C    0.79435   0.75908   0.67739
C    C    0.21921   0.32266   0.70455
C    C    0.07041   0.75356   0.17406
C    C    0.80697   0.71037   0.74576
C    C    0.09826   0.90814   0.45486
C    C    0.42284   0.91792   0.91841
C    C    0.63997   0.08097   0.91218
C    C    0.76824   0.86736   0.64676
C    C    0.67040   0.78496   0.22290
C    C    0.29604   0.10027   0.79421
C    C    0.36235   0.89342   0.99427
C    C    0.21392   0.35989   0.79022
C    C    0.06798   0.83803   0.29853
C    C    0.94380   0.73342   0.24084
C    C    0.27512   0.23641   0.22007
C    C    0.60347   0.99072   0.12987
C    C    0.88472   0.12195   0.50176
C    C    0.98307   0.25574   0.29292
C    C    0.81033   0.79745   0.41670
C    C    0.75935   0.81394   0.36015
C    C    0.55633   0.95614   0.86398
C    C    0.11058   0.90676   0.35468
C    C    0.01435   0.78109   0.67745
C    C    0.94497   0.20302   0.64257
C    C    0.93250   0.23077   0.73100
C    C    0.85925   0.18274   0.78118
C    C    0.88431   0.13258   0.60291
C    C    0.16294   0.29901   0.62774
C    C    0.05148   0.53400   0.89322
C    C    0.75413   0.80138   0.70431
C    C    0.78856   0.98632   0.51862
C    C    0.73104   0.10529   0.09972
C    C    0.90562   0.68014   0.81983
C    C    0.15559   0.76698   0.03053
C    C    0.21970   0.96144   0.23516
C    C    0.31751   0.30069   0.79119
C    C    0.34423   0.16206   0.95397
C    C    0.75350   0.88129   0.38564
C    C    0.95572   0.27728   0.20998
C    C    0.07964   0.27411   0.42183
C    C    0.94466   0.55859   0.87887
C    C    0.99926   0.48087   0.12968
C    C    0.55504   0.52544   0.17862
C    C    0.98362   0.78821   0.31477
C    C    0.98626   0.69643   0.81725
C    C    0.08800   0.60565   0.94580
C    C    0.07745   0.31971   0.73608
C    C    0.82134   0.07594   0.66057
C    C    0.74215   0.70895   0.24960
C    C    0.62287   0.76897   0.96561
C    C    0.61836   0.70385   0.92061
C    C    0.83401   0.14755   0.21975
C    C    0.87948   0.22108   0.17172
C    C    0.67058   0.64450   0.82007
C    C    0.47183   0.50221   0.15779
C    C    0.71280   0.91791   0.76677
C    C    0.72253   0.91132   0.31367
C    C    0.78124   0.15471   0.93295
C    C    0.59836   0.84144   0.09035
C    C    0.63119   0.49530   0.06694
C    C    0.94285   0.18365   0.44625
C    C    0.82638   0.05358   0.45609
C    C    0.85239   0.63805   0.89875
C    C    0.71335   0.57308   0.95103
C    C    0.78409   0.99717   0.61899
C    C    0.46973   0.54611   0.07625
C    C    0.81947   0.72586   0.27880
C    C    0.80589   0.10280   0.75031
C    C    0.71596   0.01556   0.22772
C    C    0.74812   0.99243   0.30407
C    C    0.59330   0.65851   0.12971
C    C    0.06769   0.41897   0.86186
C    C    0.92817   0.18922   0.34817
C    C    0.62719   0.73967   0.14060
C    C    0.85712   0.13032   0.30851
C    C    0.19835   0.35814   0.10716
C    C    0.77570   0.62724   0.88979
C    C    0.61332   0.93408   0.85617
C    C    0.42101   0.50193   0.99711
C    C    0.61106   0.57048   0.85482
C    C    0.07591   0.52614   0.08365
C    C    0.85316   0.22687   0.07649
C    C    0.51470   0.89455   0.02130
C    C    0.61054   0.77970   0.06564
C    C    0.56061   0.62938   0.95536
C    C    0.64397   0.96017   0.18402
C    C    0.59206   0.46510   0.97689
C    C    0.82770   0.65106   0.13957
C    C    0.84426   0.20817   0.87320
C    C    0.98539   0.59686   0.12327
C    C    0.90828   0.36769   0.05219
C    C    0.71410   0.09364   0.88392
C    C    0.68721   0.97239   0.80243
C    C    0.60405   0.87374   0.92097
C    C    0.26945   0.28982   0.70977
C    C    0.73278   0.05513   0.80501
C    C    0.92619   0.35843   0.85922
C    C    0.88309   0.28448   0.91266
C    C    0.61287   0.60661   0.17807
C    C    0.81161   0.05631   0.35669
C    C    0.64150   0.83179   0.90192
C    C    0.70479   0.78652   0.78692
C    C    0.68634   0.84518   0.81592
C    C    0.67300   0.85844   0.24001
C    C    0.34452   0.37370   0.84068
C    C    0.75950   0.09087   0.18517
C    C    0.13208   0.74542   0.93519
C    C    0.14986   0.40232   0.97534
C    C    0.06451   0.28607   0.32610
C    C    0.09708   0.60003   0.04764
C    C    0.87271   0.62364   0.08565
C    C    0.99692   0.36475   0.81339
C    C    0.07613   0.48111   0.92085
C    C    0.14170   0.36032   0.80189
C    C    0.88427   0.29268   0.01350
C    C    0.96518   0.39773   0.12546
C    C    0.89196   0.41783   0.99093
C    C    0.99901   0.30538   0.76163
C    C    0.70062   0.64321   0.18724
C    C    0.89689   0.48588   0.02955
C    C    0.71960   0.76559   0.27899
C    C    0.94952   0.51506   0.10815
C    C    0.12629   0.39888   0.87850
C    C    0.94423   0.63807   0.13246
C    C    0.66307   0.71224   0.83538
C    C    0.86813   0.59828   0.98487
C    C    0.91985   0.42107   0.89256
C    C    0.89341   0.54454   0.96146
C    C    0.53614   0.61731   0.05267
C    C    0.75194   0.66082   0.81487
C    C    0.42084   0.41272   0.88506
C    C    0.74493   0.61937   0.12766
C    C    0.53585   0.56215   0.89403
C    C    0.63692   0.52475   0.90780
C    C    0.24798   0.87948   0.13533
C    C    0.38341   0.29553   0.98510
C    C    0.44567   0.36892   0.94145
C    C    0.50775   0.39721   0.10195
C    C    0.97165   0.50528   0.86446
C    C    0.46057   0.49887   0.91154
C    C    0.50665   0.04682   0.86577
C    C    0.37313   0.29435   0.08326
C    C    0.24193   0.28783   0.21295
C    C    0.34437   0.44034   0.02101
C    C    0.42956   0.36616   0.13328
C    C    0.40975   0.42335   0.15955
C    C    0.33573   0.40496   0.11228

