# CIF file generated by openbabel 2.3.2, see http://openbabel.sf.net
data_FAU_3_nozeolite_relaxed
_symmetry_cell_setting           triclinic
_symmetry_space_group_name_H-M   'P 1'
_symmetry_Int_Tables_number      1
loop_
_symmetry_equiv_pos_site_id
_symmetry_equiv_pos_as_xyz
1 x,y,z
_cell_length_a                   17.622856335
_cell_length_b                   17.4821709325
_cell_length_c                   18.0171373449
_cell_angle_alpha                60.1844472674
_cell_angle_beta                 60.4993307903
_cell_angle_gamma                62.2446574802
loop_
    _atom_site_label
    _atom_site_type_symbol
    _atom_site_fract_x
    _atom_site_fract_y
    _atom_site_fract_z
C    C    0.01049   0.42349   0.31643
C    C    0.12437   0.32695   0.48797
C    C    0.07650   0.09548   0.45715
C    C    0.02881   0.26487   0.47477
C    C    0.02991   0.17737   0.40203
C    C    0.02596   0.17353   0.32831
C    C    0.12278   0.27143   0.57890
C    C    0.04235   0.23636   0.65247
C    C    0.00919   0.26401   0.40713
C    C    0.01603   0.40611   0.16464
C    C    0.08106   0.09402   0.30322
C    C   -0.00362   0.34423   0.32906
C    C    0.05753   0.34039   0.45350
C    C    0.02557   0.48748   0.15439
C    C    0.24324   0.00629   0.26931
C    C    0.16123   0.51752   0.01635
C    C    0.05051   0.41602   0.37310
C    C    0.31111  -0.01347   0.37414
C    C    0.22665  -0.01256   0.44713
C    C    0.13724   0.73199   0.95447
C    C    0.89213   0.85302   0.01608
C    C    0.02284   0.58044   0.22311
C    C    0.09322   0.98148   0.68293
C    C    0.06601   0.55541   0.06776
C    C    0.01291   0.30837   0.10326
C    C    0.02004   0.18001   0.63735
C    C    0.10732   0.47441   0.32957
C    C    0.99164   0.66328   0.15081
C    C    0.79573   0.88547   0.15863
C    C    0.19805   0.42426   0.01382
C    C    0.04815   0.26676   0.03378
C    C    0.07053   0.09536   0.53741
C    C    0.20639   0.35383   0.41553
C    C    0.12382   0.01266   0.59090
C    C    0.14832   0.02693   0.41919
C    C    0.08257   0.56190   0.26469
C    C    0.01083   0.49960   0.23338
C    C    0.28805   0.98788   0.54642
C    C    0.19666   0.43268   0.33680
C    C    0.52593   0.04302   0.29909
C    C    0.31850  -0.00342   0.28634
C    C    0.41750   0.16490   0.36777
C    C    0.80321   0.90417   0.22482
C    C    0.72398   0.94634   0.12101
C    C    0.39650   0.01647   0.20962
C    C    0.39106   0.06817   0.11938
C    C    0.21747   0.98184   0.53245
C    C    0.06301   0.08357   0.24279
C    C    0.29282   0.28786   0.42373
C    C    0.99691   0.24192   0.74216
C    C    0.96071   0.96297   0.82510
C    C    0.37932   0.09700   0.45227
C    C    0.28740   0.22308   0.51113
C    C    0.41365   0.32084   0.25738
C    C    0.96942   0.11753   0.71619
C    C    0.33501   0.12715   0.52571
C    C    0.26986   0.46710   0.25473
C    C    0.37701   0.00381   0.38331
C    C    0.47155   0.00560   0.22684
C    C    0.63307   0.97975   0.17589
C    C    0.37634   0.26174   0.35004
C    C    0.99123   0.33951   0.25463
C    C    0.00102   0.02157   0.73688
C    C    0.01556   0.87310   0.86641
C    C    0.90834   0.22444   0.79587
C    C    0.87527   0.00068   0.88214
C    C    0.14971   0.92198   0.74026
C    C    0.22105   0.95102   0.72229
C    C    0.14159   0.37574   0.02714
C    C    0.98053   0.81523   0.95748
C    C    0.87293   0.82383   0.11342
C    C    0.04805   0.73032   0.98787
C    C    0.45825   0.01153   0.30862
C    C    0.61345   0.01196   0.24385
C    C    0.25748   0.01751   0.17714
C    C    0.15601   0.03109   0.33575
C    C    0.83763   0.94367   0.97378
C    C    0.35729   0.02167   0.46264
C    C    0.11118   0.86395   0.82775
C    C    0.29151   0.07477   0.61486
C    C   -0.01044   0.25474   0.26331
C    C    0.45486   0.12343   0.05859
C    C    0.53194   0.31320   0.10229
C    C    0.50127   0.13028   0.30649
C    C    0.27155  -0.00141   0.62996
C    C    0.21340   0.00912   0.90713
C    C    0.02758   0.64720   0.06781
C    C    0.54286   0.08074   0.06733
C    C    0.47866   0.27016   0.00886
C    C    0.76541  -0.00339   0.22762
C    C    0.28304   0.14568   0.03067
C    C    0.74995   0.98678   0.02489
C    C    0.72746   0.18879   0.15162
C    C    0.20997   0.15204   0.01140
C    C    0.05267   0.96288   0.22415
C    C    0.22396   0.56087  -0.00048
C    C    0.70467   0.08588   0.99064
C    C    0.45936   0.37643   0.07003
C    C    0.55592   0.18963   0.23757
C    C    0.50441   0.28256   0.20003
C    C    0.75119   0.24625   0.05849
C    C    0.04041   0.17951   0.54977
C    C    0.03680   0.22545   0.93031
C    C    0.27724   0.23965   0.01008
C    C    0.36029   0.41078   0.21442
C    C    0.14568   0.61483   0.22410
C    C    0.34832   0.41284   0.00334
C    C    0.18858   0.29514   0.00417
C    C    0.98296   0.24635   0.19291
C    C    0.96074   0.02000   0.23146
C    C    0.60828   0.26235   0.03932
C    C    0.43398   0.35991   0.01548
C    C    0.81515   0.03860   0.23108
C    C    0.67869   0.05251   0.22425
C    C    0.89638   0.98173   0.25021
C    C    0.65114   0.14843   0.20173
C    C    0.10921   0.00183   0.21837
C    C    0.08394   0.87507   0.21472
C    C    0.92212   0.88762   0.26845
C    C    0.87856   0.84961   0.25196
C    C    0.04808   0.37603   0.08929
C    C    0.21583   0.85910   0.88240
C    C    0.16319   0.81289   0.88643
C    C    0.20243   0.65335   0.99612
C    C    0.24056   0.55863   0.19716
C    C    0.33494   0.51423   0.06721
C    C    0.02651   0.75911   0.23159
C    C    0.22644   0.13762   0.66538
C    C    0.01510   0.83420   0.25080
C    C    0.87461   0.17265   0.15194
C    C    0.99268   0.15212   0.20692
C    C    0.16583   0.84686   0.14333
C    C    0.22459   0.84356   0.96575
C    C    0.27966   0.58701   0.10067
C    C    0.29462   0.37369   0.00136
C    C    0.88565   0.26922   0.91717
C    C    0.12593   0.18142   0.80290
C    C    0.93610   0.74990   0.16288
C    C    0.94398   0.77136   0.22562
C    C    0.84296   0.09889   0.86069
C    C    0.03752   0.23819   0.79490
C    C    0.20313   0.99124   0.16255
C    C    0.17856   0.76747   0.13068
C    C    0.61012   0.13106   0.01772
C    C    0.31939   0.07141   0.10212
C    C    0.80044   0.13681   0.18648
C    C    0.18440   0.08893   0.93061
C    C    0.33377   0.27676   0.00940
C    C    0.14635   0.24249   0.00337
C    C    0.76709   0.21805   0.93101
C    C    0.38935   0.43710   0.11796
C    C    0.11957   0.70749   0.19831
C    C    0.42400   0.22338   0.01751
C    C    0.30886   0.50131   0.01171
C    C    0.99525   0.24326   0.01315
C    C    0.55467   0.01092   0.15182
C    C    0.94206   0.11810   0.19679
C    C    0.20772   0.91532   0.06672
C    C    0.70250   0.24922   0.00881
C    C    0.22253   0.92017   0.97794
C    C    0.21726   0.76052   0.04321
C    C    0.20326   0.07601   0.00526
C    C    0.84932   0.24603   0.87702
C    C    0.56937   0.22602   0.01135
C    C    0.22825   0.94229   0.80478
C    C    0.21458   0.98928   0.07464
C    C    0.23600   0.67018   0.04053
C    C    0.21942   0.02004   0.82024
C    C    0.76694   0.14025   0.92400
C    C    0.89743   0.23782   0.06202
C    C    0.89997   0.15316   0.78568
C    C    0.98080   0.25540   0.87892
C    C    0.84099   0.25989   0.01214
C    C    0.12600   0.17215   0.88616
C    C    0.20769   0.22555   0.59209
C    C    0.19227   0.11504   0.75839

