# CIF file generated by openbabel 2.3.2, see http://openbabel.sf.net
data_RWY_nozeolite_relaxed
_symmetry_cell_setting           triclinic
_symmetry_space_group_name_H-M   'P 1'
_symmetry_Int_Tables_number      1
loop_
_symmetry_equiv_pos_site_id
_symmetry_equiv_pos_as_xyz
1 x,y,z
_cell_length_a                   18.2154714776
_cell_length_b                   18.5610408587
_cell_length_c                   18.4576064779
_cell_angle_alpha                89.7251593981
_cell_angle_beta                 89.9481950999
_cell_angle_gamma                88.8630856062
loop_
    _atom_site_label
    _atom_site_type_symbol
    _atom_site_fract_x
    _atom_site_fract_y
    _atom_site_fract_z
C    C    0.19170   0.40874   0.52857
C    C    0.24735   0.24627   0.33834
C    C    0.16961   0.51937   0.57766
C    C    0.32899   0.62884   0.77967
C    C    0.64713   0.72589   0.77161
C    C    0.74491   0.86499   0.74542
C    C    0.74330   0.60068   0.71231
C    C    0.73634   0.72109   0.60066
C    C    0.17267   0.75424   0.75974
C    C    0.37666   0.73073   0.70892
C    C    0.25059   0.28905   0.56144
C    C    0.16724   0.30235   0.81426
C    C    0.43383   0.26044   0.69570
C    C    0.30752   0.10415   0.88368
C    C    0.31021   0.19700   0.78913
C    C    0.28590   0.24800   0.84316
C    C    0.23880   0.12097   0.28222
C    C    0.23231   0.22108   0.18636
C    C    0.01648   0.12577   0.31620
C    C    0.26161   0.16128   0.13967
C    C    0.27396   0.27317   0.21579
C    C    0.22986   0.71321   0.35899
C    C    0.12218   0.73407   0.23477
C    C    0.27244   0.73134   0.42205
C    C    0.20128   0.64487   0.34202
C    C    0.85144   0.24168   0.85058
C    C    0.82799   0.26293   0.71905
C    C    0.56525   0.31996   0.75426
C    C    0.73171   0.20643   0.84128
C    C    0.77106   0.13057   0.29600
C    C    0.71658   0.28612   0.17958
C    C    0.68242   0.16504   0.19994
C    C    0.76359   0.32627   0.23067
C    C    0.73402   0.37600   0.27812
C    C    0.74600   0.30875   0.38968
C    C    0.66759   0.69129   0.18605
C    C    0.69214   0.76639   0.19625
C    C    0.72337   0.80923   0.14574
C    C    0.83489   0.75058   0.20286
C    C    0.81589   0.71962   0.71110
C    C    0.64067   0.77972   0.71948
C    C    0.70685   0.72776   0.82548
C    C    0.18315   0.18218   0.70492
C    C    0.25582   0.85997   0.20976
C    C    0.32807   0.58827   0.22384
C    C    0.16015   0.12150   0.28447
C    C    0.23469   0.99192   0.24541
C    C    0.77112   0.43300   0.40478
C    C    0.73095   0.24069   0.35424
C    C    0.72025   0.80251   0.01110
C    C    0.47635   0.72852   0.25374
C    C    0.87361   0.75897   0.73913
C    C    0.70324   0.78263   0.87812
C    C    0.25564   0.73813   0.76393
C    C    0.27856   0.78367   0.82263
C    C    0.55722   0.61756   0.18591
C    C    0.55063   0.73976   0.23639
C    C    0.67141   0.78560   0.27202
C    C    0.59036   0.68557   0.19473
C    C    0.75227   0.77910   0.07601
C    C    0.86639   0.73063   0.13290
C    C    0.36959   0.23020   0.66313
C    C    0.24614   0.30613   0.80422
C    C    0.56785   0.25939   0.70544
C    C    0.35699   0.36041   0.75187
C    C    0.49508   0.35407   0.76482
C    C    0.21439   0.95522   0.74346
C    C    0.22087   0.87979   0.75536
C    C    0.85022   0.23597   0.28896
C    C    0.66088   0.21112   0.37747
C    C    0.93901   0.13427   0.32373
C    C    0.34160   0.76360   0.40642
C    C    0.37064   0.75301   0.33320
C    C    0.77059   0.68366   0.82036
C    C    0.76055   0.64558   0.58329
C    C    0.42547   0.46133   0.79219
C    C    0.18912   0.44807   0.59640
C    C    0.50284   0.23992   0.66737
C    C    0.20267   0.56396   0.69452
C    C    0.17597   0.57689   0.62270
C    C    0.44679   0.19536   0.47430
C    C    0.27587   0.17761   0.30693
C    C    0.26108   0.26080   0.41105
C    C    0.31443   0.22447   0.45896
C    C    0.22430   0.34236   0.50967
C    C    0.24127   0.49535   0.71170
C    C    0.30299   0.49208   0.76055
C    C    0.35788   0.43279   0.76903
C    C    0.16305   0.69490   0.70482
C    C    0.52954   0.20585   0.36632
C    C    0.23889   0.22510   0.67924
C    C    0.70173   0.33095   0.78425
C    C    0.17746   0.46048   0.47235
C    C    0.49322   0.42681   0.78912
C    C    0.47829   0.58041   0.79914
C    C    0.55034   0.54887   0.79248
C    C    0.19974   0.45284   0.40096
C    C    0.50519   0.20846   0.59552
C    C    0.42681   0.32104   0.74298
C    C    0.36931   0.22163   0.58357
C    C    0.43954   0.20554   0.55139
C    C    0.51916   0.19136   0.44142
C    C    0.52185   0.69443   0.75420
C    C    0.24093   0.35969   0.68078
C    C    0.55667   0.47194   0.78997
C    C    0.61234   0.59423   0.77658
C    C    0.70375   0.23487   0.56774
C    C    0.57451   0.20059   0.56183
C    C    0.63059   0.36154   0.77523
C    C    0.34970   0.20243   0.29185
C    C    0.78202   0.65505   0.74545
C    C    0.79192   0.33372   0.58467
C    C    0.81795   0.34079   0.71398
C    C    0.63852   0.21273   0.60277
C    C    0.26014   0.06295   0.23236
C    C    0.30778   0.23774   0.53610
C    C    0.23470   0.29492   0.63717
C    C    0.63472   0.22839   0.67736
C    C    0.41753   0.53520   0.80085
C    C    0.16730   0.52951   0.50216
C    C    0.24751   0.30565   0.28468
C    C    0.65114   0.20895   0.45219
C    C    0.50924   0.75133   0.70348
C    C    0.59495   0.67009   0.77162
C    C    0.46278   0.65212   0.77648
C    C    0.22282   0.24513   0.04309
C    C    0.38361   0.20010   0.42785
C    C    0.68508   0.48497   0.75405
C    C    0.75849   0.75515   0.66371
C    C    0.23469   0.32973   0.43372
C    C    0.40693   0.31072   0.23987
C    C    0.46794   0.22695   0.32521
C    C    0.18532   0.64624   0.58752
C    C    0.77364   0.51010   0.60527
C    C    0.58241   0.19403   0.48530
C    C    0.71464   0.81096   0.70409
C    C    0.70121   0.22674   0.71369
C    C    0.54670   0.30264   0.25000
C    C    0.60665   0.25362   0.26595
C    C    0.62530   0.43966   0.77636
C    C    0.43708   0.75866   0.66932
C    C    0.90638   0.70123   0.85915
C    C    0.78150   0.63383   0.50944
C    C    0.68072   0.56125   0.75105
C    C    0.50005   0.80908   0.56860
C    C    0.39845   0.20441   0.34983
C    C    0.43122   0.78601   0.59510
C    C    0.70610   0.24401   0.49361
C    C    0.81182   0.55540   0.40924
C    C    0.79681   0.56204   0.48428
C    C    0.47443   0.27860   0.26914
C    C    0.11854   0.18108   0.25297
C    C    0.20456   0.51486   0.35645
C    C    0.27725   0.85710   0.80696
C    C    0.34382   0.55526   0.78513
C    C    0.75882   0.58483   0.63260
C    C    0.78366   0.73103   0.32620
C    C    0.77607   0.69232   0.45678
C    C    0.72448   0.75057   0.46953
C    C    0.20003   0.62956   0.73419
C    C    0.57541   0.78283   0.67560
C    C    0.62849   0.80217   0.54794
C    C    0.80280   0.68324   0.38427
C    C    0.46233   0.80551   0.44110
C    C    0.69121   0.78369   0.40603
C    C    0.25855   0.65813   0.77360
C    C    0.69508   0.76112   0.54206
C    C    0.57109   0.80397   0.60361
C    C    0.51348   0.82100   0.49423
C    C    0.29987   0.74695   0.69414
C    C    0.26464   0.74172   0.62628
C    C    0.82304   0.61257   0.36180
C    C    0.05383   0.05917   0.32413
C    C    0.18589   0.59344   0.46602
C    C    0.54963   0.37089   0.21890
C    C    0.37119   0.77406   0.54023
C    C    0.77412   0.35802   0.51304
C    C    0.59882   0.21402   0.33307
C    C    0.49792   0.48119   0.18849
C    C    0.80790   0.70746   0.25356
C    C    0.22754   0.38526   0.38019
C    C    0.29889   0.74348   0.55449
C    C    0.59002   0.81992   0.48186
C    C    0.71956   0.77424   0.33391
C    C    0.20421   0.65434   0.51295
C    C    0.25579   0.71193   0.49544
C    C    0.28997   0.03474   0.10541
C    C    0.27639   0.08788   0.16050
C    C    0.19425   0.70508   0.63510
C    C    0.76015   0.37369   0.75550
C    C    0.14998   0.22510   0.19608
C    C    0.12984   0.92187   0.30977
C    C    0.61800   0.81017   0.41246
C    C    0.81292   0.37717   0.64528
C    C    0.92386   0.25853   0.86426
C    C    0.35164   0.25922   0.23707
C    C    0.39014   0.78373   0.46353
C    C    0.25590   0.57565   0.25031
C    C    0.35074   0.44829   0.22808
C    C    0.25386   0.37655   0.30711
C    C    0.77935   0.45077   0.65653
C    C    0.78565   0.49807   0.52690
C    C    0.78690   0.49560   0.36884
C    C    0.97450   0.27875   0.19655
C    C    0.12943   0.05479   0.30503
C    C    0.16950   0.98650   0.29374
C    C    0.77966   0.42952   0.48438
C    C    0.74649   0.30233   0.46592
C    C    0.83995   0.21891   0.77640
C    C    0.76169   0.26522   0.60561
C    C    0.24772   0.74859   0.28694
C    C    0.44533   0.76269   0.31684
C    C    0.75411   0.37442   0.35671
C    C    0.70525   0.25026   0.78880
C    C    0.84463   0.13985   0.76500
C    C    0.56694   0.80227   0.35399
C    C    0.28468   0.95948   0.12354
C    C    0.74567   0.44492   0.72540
C    C    0.76933   0.23666   0.67506
C    C    0.66667   0.23960   0.21826
C    C    0.77599   0.23366   0.96596
C    C    0.69914   0.11720   0.97187
C    C    0.19493   0.58479   0.38896
C    C    0.20912   0.63539   0.26506
C    C    0.77191   0.51799   0.29483
C    C    0.68057   0.56016   0.20599
C    C    0.72321   0.18647   0.00087
C    C    0.70882   0.08897   0.89793
C    C    0.80148   0.58724   0.28999
C    C    0.82229   0.27707   0.00773
C    C    0.78694   0.23304   0.89138
C    C    0.27211   0.83449   0.07943
C    C    0.03155   0.80312   0.29446
C    C    0.09961   0.69937   0.10815
C    C    0.89566   0.07240   0.32614
C    C    0.87374   0.31609   0.11434
C    C    0.01234   0.99694   0.33449
C    C    0.94219   0.29457   0.93041
C    C    0.89590   0.30131   0.99120
C    C    0.25423   0.79029   0.01969
C    C    0.19868   0.73727   0.02705
C    C    0.57427   0.48823   0.19014
C    C    0.10552   0.78928   0.28537
C    C    0.22044   0.73965   0.15657
C    C    0.97795   0.23968   0.80762
C    C    0.28155   0.44256   0.26889
C    C    0.44834   0.53923   0.19301
C    C    0.05218   0.92951   0.32991
C    C    0.25879   0.93601   0.19443
C    C    0.59484   0.78291   0.28444
C    C    0.00765   0.86976   0.32419
C    C    0.92707   0.32017   0.05936
C    C    0.74174   0.26457   0.11119
C    C    0.25674   0.80799   0.15032
C    C    0.15780   0.84836   0.29880
C    C    0.22973   0.82772   0.27593
C    C    0.93306   0.00384   0.32856
C    C    0.91991   0.20364   0.29342
C    C    0.71411   0.11184   0.24508
C    C    0.27577   0.22835   0.91747
C    C    0.29115   0.13274   0.01271
C    C    0.68659   0.14886   0.12477
C    C    0.78799   0.09125   0.78868
C    C    0.32628   0.72008   0.27961
C    C    0.01076   0.04383   0.69178
C    C    0.30712   0.93102   0.99341
C    C    0.67991   0.43032   0.24782
C    C    0.27894   0.33971   0.74846
C    C    0.29773   0.15634   0.93920
C    C    0.37394   0.52455   0.21195
C    C    0.31059   0.00608   0.97588
C    C    0.89367   0.94294   0.30433
C    C    0.89677   0.30377   0.18644
C    C    1.00379   0.31615   0.07284
C    C    0.04417   0.18352   0.27435
C    C    0.68738   0.07609   0.10236
C    C    0.93742   0.05786   0.71290
C    C    0.82677   0.94737   0.26132
C    C    0.68095   0.06403   0.02663
C    C    0.35953   0.66081   0.23688
C    C    0.27618   0.81064   0.94973
C    C    0.82058   0.73890   0.07157
C    C    0.30124   0.05832   0.03211
C    C    0.30167   0.12476   0.80874
C    C    0.99331   0.73051   0.18880
C    C    0.93301   0.87880   0.30610
C    C    0.80680   0.29150   0.08084
C    C    0.47936   0.60986   0.19537
C    C    0.73809   0.12744   0.83859
C    C    0.97489   0.77265   0.25102
C    C    0.60984   0.42282   0.21559
C    C    0.49054   0.79565   0.36900
C    C    0.84737   0.82368   0.22592
C    C    0.97323   0.70192   0.05686
C    C    0.83941   0.29237   0.23908
C    C    0.82014   0.07245   0.30298
C    C    0.71306   0.50058   0.24648
C    C    0.48037   0.40963   0.20557
C    C    0.24392   0.50860   0.28857
C    C    0.70933   0.20291   0.07497
C    C    0.91266   0.82097   0.26268
C    C    0.03157   0.28879   0.14013
C    C    0.78400   0.20323   0.31905
C    C    0.71351   0.62898   0.20073
C    C    0.60557   0.55540   0.18620
C    C    0.23160   0.26831   0.96906
C    C    0.31082   0.21369   0.70806
C    C    0.79028   0.01331   0.26295
C    C    0.70959   0.94222   0.12557
C    C    0.70582   0.01714   0.15118
C    C    0.43686   0.66854   0.22410
C    C    0.11186   0.26489   0.14026
C    C    0.13801   0.32161   0.88247
C    C    0.17052   0.31490   0.95164
C    C    0.10930   0.26908   0.77370
C    C    0.15587   0.27918   0.07478
C    C    0.01512   0.31906   0.93975
C    C    0.29300   0.90751   0.06642
C    C    0.26181   0.18139   0.06631
C    C    0.12423   0.31752   0.01462
C    C    0.74375   0.88440   0.16572
C    C    0.69525   0.01411   0.88156
C    C    0.72874   0.04011   0.22056
C    C    0.17552   0.71843   0.09717
C    C    0.95454   0.70017   0.92115
C    C    0.26112   0.07762   0.76133
C    C    0.19941   0.10591   0.72098
C    C    0.30915   0.02969   0.90181
C    C    0.05129   0.69730   0.04689
C    C    0.18326   0.73269   0.89527
C    C    0.25462   0.76646   0.89169
C    C    0.40731   0.38856   0.22022
C    C    0.07061   0.71434   0.18000
C    C    0.05983   0.31602   0.87917
C    C    0.11124   0.20976   0.72627
C    C    0.92590   0.70078   0.99459
C    C    0.07915   0.70460   0.97381
C    C    0.22346   0.43248   0.66390
C    C    0.29682   0.97957   0.84529
C    C    0.14024   0.06011   0.70470
C    C    0.04214   0.27920   0.81441
C    C    0.97833   0.17858   0.75567
C    C    0.30337   0.88059   0.93522
C    C    0.80239   0.88679   0.21878
C    C    0.78107   0.01307   0.77859
C    C    0.06726   0.09168   0.69885
C    C    0.04952   0.16329   0.72370
C    C    0.91888   0.12530   0.74358
C    C    0.02269   0.96852   0.68743
C    C    0.14994   0.98291   0.71047
C    C    0.15455   0.72043   0.96530
C    C    0.04789   0.32534   0.00997
C    C    0.26323   0.00326   0.77871
C    C    0.72431   0.97750   0.81865
C    C    0.83249   0.96597   0.74004
C    C    0.66722   0.99268   0.00857
C    C    0.94321   0.71754   0.12775
C    C    0.68002   0.86892   0.00538
C    C    0.70952   0.90118   0.80793
C    C    0.67926   0.93053   0.05438
C    C    0.66789   0.89525   0.93319
C    C    0.87945   0.83657   0.72615
C    C    0.84966   0.71713   0.00290
C    C    0.80289   0.72014   0.94124
C    C    0.03150   0.71020   0.91133
C    C    0.68310   0.85864   0.86784
C    C    0.98288   0.23050   0.25570
C    C    0.73887   0.76516   0.94484
C    C    0.29823   0.90564   0.86194
C    C    0.78159   0.63674   0.23754
C    C    0.08941   0.93496   0.70186
C    C    0.39002   0.67583   0.76263
C    C    0.20115   0.71003   0.22968
C    C    0.90048   0.98875   0.71366
C    C    0.66602   0.97103   0.93573
C    C    0.82774   0.69459   0.87193
C    C    0.00571   0.75972   0.78617
C    C    0.82022   0.88813   0.73379
C    C    0.93141   0.73372   0.79197
C    C    0.08959   0.85983   0.72543
C    C    0.16082   0.83227   0.74174
C    C    0.05905   0.73429   0.84127
C    C    0.01952   0.82243   0.73765
C    C    0.13669   0.73805   0.83327
C    C    0.95284   0.86199   0.71829
C    C    0.95598   0.93487   0.69884

