# CIF file generated by openbabel 2.3.2, see http://openbabel.sf.net
data_SBS_nozeolite_relaxed
_symmetry_cell_setting           triclinic
_symmetry_space_group_name_H-M   'P 1'
_symmetry_Int_Tables_number      1
loop_
_symmetry_equiv_pos_site_id
_symmetry_equiv_pos_as_xyz
1 x,y,z
_cell_length_a                   17.7072966471
_cell_length_b                   17.5383615204
_cell_length_c                   27.5103934181
_cell_angle_alpha                89.9203352787
_cell_angle_beta                 88.5315562567
_cell_angle_gamma                120.030153096
loop_
    _atom_site_label
    _atom_site_type_symbol
    _atom_site_fract_x
    _atom_site_fract_y
    _atom_site_fract_z
C    C    0.10534   0.96281   0.86689
C    C    0.77367   0.87144   0.83685
C    C    0.01419   0.88989   0.87459
C    C    0.84658   0.86405   0.85663
C    C    0.16886   0.11831   0.64198
C    C    0.03828   0.83294   0.70485
C    C    0.21965   0.03745   0.80315
C    C    0.16376   0.96164   0.83129
C    C    0.77360   0.94905   0.82730
C    C    0.07291   0.66331   0.76355
C    C    0.88646   0.83059   0.82334
C    C    0.24001   0.14374   0.72156
C    C    0.23830   0.17608   0.77011
C    C    0.21463   0.11531   0.80946
C    C    0.09060   0.80252   0.80786
C    C    0.42255   0.96371   0.71827
C    C    0.87025   0.08928   0.78362
C    C    0.20997   0.17367   0.68266
C    C    0.19434   0.77439   0.64928
C    C    0.98528   0.80537   0.74899
C    C    0.34636   0.96889   0.71276
C    C    0.76137   0.78227   0.76682
C    C    0.26164   0.02979   0.75861
C    C    0.28234   0.92406   0.67591
C    C    0.24477   0.88290   0.82603
C    C    0.32455   0.73243   0.86927
C    C    0.85109   0.03965   0.82825
C    C    0.16139   0.03176   0.63902
C    C    0.94004   0.08352   0.60680
C    C    0.89595   0.04625   0.09174
C    C    0.96928   0.83684   0.83306
C    C    0.72872   0.98516   0.75066
C    C    0.40808   0.74018   0.87838
C    C    0.10224   0.72584   0.80191
C    C    0.90323   0.80082   0.73839
C    C    0.60329   0.78771   0.65475
C    C    0.96530   0.90301   0.91177
C    C    0.56908   0.74410   0.84799
C    C    0.20637   0.70537   0.63300
C    C    0.12834   0.76328   0.68443
C    C    0.19009   0.26341   0.81771
C    C    0.86143   0.95244   0.93493
C    C    0.98768   0.10512   0.07585
C    C    0.91348   0.07631   0.86492
C    C    0.94532   0.17150   0.77524
C    C    0.32240   0.81057   0.85637
C    C    0.09180   0.60961   0.68852
C    C    0.18296   0.55731   0.64620
C    C    0.81668   0.04819   0.74282
C    C    0.16275   0.87937   0.82190
C    C    0.08489   0.68122   0.70966
C    C    0.90354   0.03963   0.91247
C    C    0.61351   0.89998   0.81674
C    C    0.16752   0.72229   0.83217
C    C    0.31102   0.98920   0.75734
C    C    0.07375   0.54489   0.72459
C    C    0.01042   0.95325  -0.00178
C    C    0.73444   0.92346   0.67374
C    C    0.00652   0.21223   0.81338
C    C    0.06948   0.34690   0.76448
C    C    0.45910   0.97456   0.76595
C    C    0.69991   0.94404   0.79900
C    C    0.07662   0.29912   0.80572
C    C    0.34420   0.82827   0.63708
C    C    0.32074   0.94801   0.80130
C    C    0.55080   0.92899   0.80645
C    C    0.24141   0.06523   0.71603
C    C    0.43160   0.86251   0.65185
C    C    0.23292   0.25301   0.77624
C    C    0.07153   0.17221   0.88049
C    C    0.01185   0.80953   0.79696
C    C    0.15217   0.61889   0.65063
C    C    0.12269   0.04797   0.88293
C    C    0.27112   0.58868   0.62543
C    C    0.32553   0.44320   0.68308
C    C    0.09309   0.47804   0.71838
C    C    0.26175   0.45111   0.65681
C    C    0.69441   0.83199   0.65890
C    C    0.29734   0.73889   0.62229
C    C    0.19791   0.92258   0.67971
C    C    0.07498   0.05237   0.92403
C    C   -0.00346   0.15994   0.85496
C    C    0.83823   0.82617   0.65939
C    C    0.86377   1.00018   0.61677
C    C    0.12007   0.56894   0.80848
C    C    0.17554   0.64462   0.83655
C    C    0.30739   0.53504   0.63154
C    C    0.40237   0.88815   0.84083
C    C    0.20154   0.49266   0.82963
C    C    0.07451   0.58345   0.77101
C    C    0.85735   0.06618   0.69530
C    C    0.25983   0.57039   0.85651
C    C    0.24238   0.80501   0.84369
C    C    0.09522   0.43468   0.76344
C    C    0.37402   0.52945   0.84391
C    C    0.16692   0.33493   0.81916
C    C    0.53243   0.96192   0.76427
C    C    0.68233   0.93902   0.70810
C    C    0.93991   0.14335   0.68700
C    C    0.34089   0.57976   0.86872
C    C    0.12432   0.84335   0.69233
C    C    0.84944   0.80414   0.77519
C    C    0.71178   0.74687   0.72269
C    C    0.82003   0.99413   0.66201
C    C    0.75074   0.79566   0.67600
C    C    0.13361   0.49421   0.80456
C    C    0.16952   0.12280   0.85094
C    C    0.79738   0.88683   0.25275
C    C    0.14998   0.19316   0.85221
C    C    0.42447   0.72058   0.62601
C    C    0.58649   0.66335   0.77872
C    C    0.20478   0.25170   0.69086
C    C    0.48704   0.81932   0.86593
C    C    0.46809   0.92848   0.68835
C    C    0.59390   0.90546   0.69546
C    C    0.54075   0.93856   0.71423
C    C    0.55866   0.83872   0.65959
C    C    0.27930   0.85388   0.65007
C    C    0.90129   0.81733   0.68768
C    C    0.47775   0.55513   0.70531
C    C    0.46536   0.58531   0.83668
C    C    0.20163   1.00903   0.67594
C    C    0.71531   0.79387   0.80676
C    C    0.17127   0.41440   0.67173
C    C    0.33228   0.68264   0.61895
C    C    0.45952   0.66325   0.63540
C    C    0.36413   0.45430   0.76814
C    C    0.62670   0.73420   0.81297
C    C    0.98966   0.84746   0.67033
C    C    0.47336   0.80981   0.64233
C    C    0.25197   0.30787   0.73243
C    C    0.88136   0.89420   0.90317
C    C    0.87375   0.92038   0.03048
C    C    0.85463   0.92768   0.58495
C    C    0.25012   0.64793   0.85835
C    C    0.48155   0.88844   0.84259
C    C    0.98527   0.14831   0.64254
C    C    0.11624   0.32618   0.68558
C    C    0.94126   0.04249   0.52266
C    C    0.14234   0.47881   0.67567
C    C    0.11254   0.13971   0.61506
C    C    0.87038   0.86378   0.60974
C    C    0.82388   0.91355   0.16415
C    C    0.32298   0.46055   0.81278
C    C    0.22746   0.42449   0.82042
C    C    0.45187   0.52423   0.75564
C    C    0.62174   0.68275   0.72965
C    C    0.56802   0.82463   0.85115
C    C    0.49243   0.66615   0.86214
C    C    0.50453   0.58650   0.79134
C    C    0.31085   0.39629   0.72860
C    C    0.54344   0.69362   0.65689
C    C    0.40972   0.51810   0.67202
C    C    0.41390   0.66314   0.87942
C    C    0.80814   0.85465   0.29904
C    C    0.89002   0.83979   0.11653
C    C    0.81563  -0.00904   0.16841
C    C    0.78784   0.96166   0.25490
C    C    0.04515   0.29260   0.72095
C    C    0.97637   0.20477   0.72629
C    C    0.98834   0.09349   0.56306
C    C    0.39945   0.57303   0.63802
C    C    0.39849   0.94646   0.80612
C    C    0.73978   0.68959   0.27329
C    C    0.55307   0.64035   0.69323
C    C    0.92382   0.60084   0.32229
C    C    0.05487   0.13135   0.11118
C    C    0.10482   0.08720   0.10848
C    C    0.86401   0.06270   0.13548
C    C    0.80927   0.85674   0.20528
C    C    0.81865   0.78094   0.19662
C    C    0.76359   0.69783   0.22321
C    C    0.19442   0.16560   0.17663
C    C    0.06059   0.17705   0.15521
C    C    0.85380   0.00362   0.33589
C    C    0.06774   0.22163   0.25475
C    C    0.16111   0.09068   0.14626
C    C    0.13696   0.19972   0.18292
C    C    0.91651   0.19827   0.29916
C    C    0.76888   0.12777   0.33602
C    C    0.77621   0.00153   0.21202
C    C    0.90310   0.15660   0.15410
C    C    0.91389   0.94179   0.42362
C    C    0.21068   0.12457   0.32480
C    C    0.20063   0.21096   0.25839
C    C    0.25520   0.19292   0.22138
C    C    0.96253   0.16185   0.32145
C    C    0.77037   0.59330   0.35398
C    C    0.85982   0.28726   0.34028
C    C    0.84904   0.20408   0.32885
C    C    0.93810   0.22981   0.25152
C    C    0.75630   0.05632   0.30373
C    C    0.80603   0.37605   0.38343
C    C    0.62725   0.05640   0.27802
C    C    0.79508   0.29128   0.37147
C    C    0.92089   0.44409   0.32033
C    C    0.14121   0.22526   0.23267
C    C    0.18221   0.18300   0.30721
C    C    0.08318   0.92358   0.13871
C    C    0.39230   0.16979   0.17179
C    C    0.11951   0.86532   0.26269
C    C    0.84686   0.91787   0.33916
C    C    0.15018   0.00581   0.15735
C    C    0.47449   0.05797   0.30105
C    C    0.88284   0.89500   0.37856
C    C    0.69898   0.08829   0.18193
C    C    0.17426   0.98373   0.20151
C    C    0.91611   0.72850   0.16645
C    C    0.73381   0.37952   0.40342
C    C    0.92370   0.68174   0.32821
C    C    0.24249   0.01232   0.28456
C    C    0.63729   0.42942   0.38698
C    C    0.10817   0.18032   0.33175
C    C    0.87331   0.45458   0.35899
C    C    0.87025   0.53398   0.35730
C    C    0.84028   0.75539   0.34163
C    C    0.94279   0.49665   0.27659
C    C    0.79277   0.53319   0.37529
C    C    1.00500   0.76482   0.31879
C    C    0.00421   0.72362   0.23099
C    C    0.69603   0.13652   0.35066
C    C    0.49279   0.04299   0.25172
C    C    0.79934   0.00876   0.29958
C    C    0.99233   0.19095   0.17519
C    C    0.97732   0.83272   0.39239
C    C    0.67644   0.60212   0.29232
C    C    0.77863   0.59142   0.16566
C    C    0.74430   0.50709   0.14680
C    C    0.68382   0.56305   0.33741
C    C    0.95123   0.57965   0.27743
C    C    0.12779   0.89361   0.21277
C    C    0.90462   0.58532   0.19230
C    C    0.91720   0.29170   0.22963
C    C    1.00072   0.21622   0.22488
C    C    0.48783   0.19323   0.36069
C    C    0.21786   0.03405   0.23806
C    C    0.72670   0.04411   0.21710
C    C    0.57295   0.04904   0.23932
C    C    0.54422   0.09755   0.33393
C    C    0.55064   0.16450   0.36623
C    C    0.54298   0.45430   0.27484
C    C    0.98654   0.09111   0.38869
C    C    0.87059   0.63800   0.17113
C    C    0.93417   0.43889   0.23676
C    C    0.39696   0.06093   0.31154
C    C    0.61504   0.53890   0.25903
C    C    0.91540   0.36268   0.31045
C    C    0.95964   0.63091   0.23264
C    C    0.06659   0.85457   0.17634
C    C    0.14496   0.98083   0.38087
C    C    0.99919   0.76910   0.18744
C    C    0.36775   0.05336   0.22980
C    C    0.79197   0.76707   0.30565
C    C    0.04724   0.78003   0.27271
C    C    0.07967   0.18941   0.64001
C    C    0.92932   0.90431   0.50895
C    C    0.87293   0.78242   0.15605
C    C    0.70950   0.21390   0.37491
C    C    0.33051   0.02100   0.27701
C    C    0.99253   0.06430   0.47855
C    C    0.05047   0.19667   0.30504
C    C    0.84553   0.67584   0.34113
C    C    0.92907   0.36234   0.25843
C    C    0.44705   0.05818   0.21473
C    C    0.64844   0.30484   0.40244
C    C    0.58936   0.33616   0.39165
C    C    0.63402   0.22305   0.38604
C    C    0.61755   0.08703   0.32461
C    C    0.16359   0.92529   0.30129
C    C    0.57744   0.11525   0.16017
C    C    0.61233   0.07572   0.19135
C    C    0.27684   0.12641   0.23961
C    C    0.47742   0.32961   0.15938
C    C    0.34463   0.11368   0.21058
C    C    0.46243   0.15984   0.14946
C    C    0.17117   0.07159   0.36564
C    C    0.48539   0.39425   0.23976
C    C    0.52470   0.23070   0.12116
C    C    0.03600   0.83171   0.35454
C    C    0.49139   0.10365   0.17115
C    C    0.12120   0.91059   0.34723
C    C    0.85539   0.19917   0.15883
C    C    0.88814   0.28587   0.18225
C    C    0.04596   0.92683   0.09436
C    C    0.60035   0.47596   0.17697
C    C    0.40688   0.31312   0.25535
C    C    0.61628   0.47468   0.35209
C    C    0.54122   0.42153   0.32298
C    C    0.63915   0.18812   0.13002
C    C    0.86866   0.49533   0.17604
C    C    0.73143   0.22111   0.13486
C    C    0.41054   0.27384   0.30286
C    C    0.72615   0.45622   0.39648
C    C    0.70027   0.04850   0.26596
C    C    0.51522   0.40610   0.18948
C    C    0.27856   0.11804   0.29561
C    C    0.89584   0.43226   0.19111
C    C    0.72784   0.61740   0.19526
C    C    0.48435   0.32815   0.33294
C    C    0.12709   0.10083   0.39988
C    C    0.51352   0.28463   0.36616
C    C    0.36558   0.18048   0.31499
C    C    0.78848   0.31617   0.13665
C    C    0.88673   0.95071   0.53538
C    C    0.35101   0.26608   0.21589
C    C    0.64286   0.54836   0.20903
C    C    0.75974   0.16207   0.15311
C    C    0.86330   0.34823   0.16665
C    C    0.40965   0.14006   0.33646
C    C    0.98764   0.90303   0.54518
C    C    0.79514   0.46263   0.14515
C    C    0.65254   0.45948   0.14215
C    C    0.75531   0.37441   0.12654
C    C    0.61129   0.24519   0.11190
C    C    0.61824   0.37957   0.11832
C    C    0.89333   0.82016   0.37390
C    C    0.66965   0.33757   0.10985
C    C    0.07435   0.10822   0.56934
C    C    0.53032   0.31527   0.12549
C    C    0.13732   0.25769   0.67036
C    C    0.07527   0.97629   0.55676
C    C    0.94852   0.86608   0.59051
C    C    0.39918   0.25626   0.17592
C    C    0.94065   0.89877   0.46044
C    C    0.07126   0.06570   0.48557
C    C    0.01747   0.88959   0.62467
C    C    0.09559   0.05891   0.53447
C    C    0.00977   0.88809   0.43252
C    C    0.10635   0.04871   0.44179
C    C    0.09452   0.96467   0.60663
C    C    0.95436   0.03152   0.43054
C    C    0.92662   0.08544   0.35337
C    C    0.07883   0.13851   0.37841
C    C    0.09630   0.96479   0.42563
C    C    0.95723   0.86656   0.07673
C    C    0.93623   0.88794   0.03154
C    C    0.00602   0.07993   0.03065
C    C    0.05058   0.11827   0.92291
C    C    0.94289   0.06037   0.99275
C    C    0.87580   0.96798   0.98671
C    C    0.96757   0.09639   0.94706
C    C    0.04775   0.02913   0.03108
C    C    0.01935   0.96565   0.94963
C    C    0.86376   0.95267   0.07746
C    C    0.07710   0.01596   0.07555
C    C    0.85291   0.89751   0.11840

